[TITLE]
;;Project Title/Notes
HEC-22 example 4-12 with
captured flow of 1.6 cfs
and depth of 0.16 ft.

[OPTIONS]
;;Option             Value
FLOW_UNITS           CFS
INFILTRATION         HORTON
FLOW_ROUTING         DYNWAVE
LINK_OFFSETS         DEPTH
MIN_SLOPE            0
ALLOW_PONDING        NO
SKIP_STEADY_STATE    NO

START_DATE           07/27/2020
START_TIME           00:00:00
REPORT_START_DATE    07/27/2020
REPORT_START_TIME    00:00:00
END_DATE             07/27/2020
END_TIME             05:00:00
SWEEP_START          01/01
SWEEP_END            12/31
DRY_DAYS             0
REPORT_STEP          00:01:00
WET_STEP             00:05:00
DRY_STEP             01:00:00
ROUTING_STEP         0:00:01 
RULE_STEP            00:00:00

INERTIAL_DAMPING     PARTIAL
NORMAL_FLOW_LIMITED  BOTH
FORCE_MAIN_EQUATION  H-W
VARIABLE_STEP        0.75
LENGTHENING_STEP     0
MIN_SURFAREA         12.566
MAX_TRIALS           8
HEAD_TOLERANCE       0.005
SYS_FLOW_TOL         5
LAT_FLOW_TOL         5
MINIMUM_STEP         0.5
THREADS              1

[EVAPORATION]
;;Data Source    Parameters
;;-------------- ----------------
CONSTANT         0.0
DRY_ONLY         NO

[JUNCTIONS]
;;Name           Elevation  MaxDepth   InitDepth  SurDepth   Aponded   
;;-------------- ---------- ---------- ---------- ---------- ----------
3                92         0.5        0          0          0         
4                2          0          0          0          0         
5                1          0          0          0          0         
7                96         0.5        0          0          0         
2                96         0          0          0          0         

[OUTFALLS]
;;Name           Elevation  Type       Stage Data       Gated    Route To        
;;-------------- ---------- ---------- ---------------- -------- ----------------
6                0          FREE                        NO                       

[CONDUITS]
;;Name           From Node        To Node          Length     Roughness  InOffset   OutOffset  InitFlow   MaxFlow   
;;-------------- ---------------- ---------------- ---------- ---------- ---------- ---------- ---------- ----------
2                2                3                400        0.016      0          0          0          0         
4                4                5                400        0.01       0          0          0          0         
5                5                6                400        0.01       0          0          0          0         
6                7                3                400        0.016      0          0          0          0         

[XSECTIONS]
;;Link           Shape        Geom1            Geom2      Geom3      Geom4      Barrels    Culvert   
;;-------------- ------------ ---------------- ---------- ---------- ---------- ---------- ----------
2                STREET       Street1          0          0          0          1                    
4                CIRCULAR     2                0          0          0          1                    
5                CIRCULAR     2                0          0          0          1                    
6                STREET       Street1          0          0          0          1                    

[STREETS]
;;Name           Tcrown   Hcurb    Sroad    nRoad    Hdep     Wdep     Sides    Wback    Sback    nBack   
;;-------------- -------- -------- -------- -------- -------- -------- -------- -------- -------- --------
Street1          20       0.5      5        0.016    0        0        1        0        0        0       

[INLETS]
;;Name           Type             Parameters:
;;-------------- ---------------- -----------
OnSagCurbOpen    CURB             8.2      0.43     HORIZONTAL

[INLET_USAGE]
;;Conduit        Inlet_Type       Inlet_Node       #Inlets   %Clogged  MaxFlow   Local_Depression
;;-------------- ---------------- ---------------- --------- --------- --------- --------- ---------
2                OnSagCurbOpen    5                1         0         0         0         0        

[INFLOWS]
;;Node           Constituent      Time Series      Type     Mfactor  Sfactor  Baseline Pattern
;;-------------- ---------------- ---------------- -------- -------- -------- -------- --------
2                FLOW             Inflow           FLOW     1.0      1.0      0       

[TIMESERIES]
;;Name           Date       Time       Value     
;;-------------- ---------- ---------- ----------
Inflow                      0:00       1         
Inflow                      0:15       1         
Inflow                      0:15:01    2         
Inflow                      0:30       2         
Inflow                      0:30:01    3         
Inflow                      0:45       3         
Inflow                      0:45:01    4         
Inflow                      1:00       4         
Inflow                      1:00:01    6         
Inflow                      1:30       6         
Inflow                      1:30:01    8         
Inflow                      2:00       8         
Inflow                      2:00:01    10        
Inflow                      2:30       10        
Inflow                      2:30:01    12        
Inflow                      3:00       12        
Inflow                      3:00:01    14        
Inflow                      3:30       14        
Inflow                      3:30:01    16        
Inflow                      4:00       16        
Inflow                      4:00:01    18        
Inflow                      4:30       18        
Inflow                      4:30:01    20        
Inflow                      5:00       20        

[REPORT]
;;Reporting Options
INPUT      YES
SUBCATCHMENTS ALL
NODES ALL
LINKS ALL

[TAGS]

[MAP]
DIMENSIONS 0.000 0.000 10000.000 10000.000
Units      None

[COORDINATES]
;;Node           X-Coord            Y-Coord           
;;-------------- ------------------ ------------------
3                5815.650           7015.915          
4                3163.130           5623.342          
5                5722.812           5397.878          
7                8201.299           7246.753          
2                3264.278           7581.187          
6                7765.252           5079.576          

[VERTICES]
;;Link           X-Coord            Y-Coord           
;;-------------- ------------------ ------------------

[LABELS]
;;X-Coord          Y-Coord            Label           
1979.638           7737.557           "Inflow TS" "" "Arial" 10 0 0
4227.273           7753.247           "8.2 ft curb opening" "" "Arial" 10 0 0

