[OPTIONS]
;Option and Files Scenario Set: BASE, Base Simulation Options
FLOW_UNITS	CFS
INFILTRATION	HORTON
FLOW_ROUTING	DYNWAVE
ALLOW_PONDING	YES
DRY_DAYS	5.000000
SKIP_STEADY_STATE 	NO
IGNORE_RAINFALL	NO
IGNORE_SNOWMELT	NO
IGNORE_GROUNDWATER	NO
IGNORE_QUALITY	NO
FORCE_MAIN_EQUATION	H-W
LINK_OFFSETS	DEPTH
MIN_SLOPE	0.000000
START_DATE	01/01/2002
START_TIME	00:00
END_DATE	01/02/2002
END_TIME	00:00
REPORT_START_DATE	01/01/2002
REPORT_START_TIME	00:00
SWEEP_START	01/01
SWEEP_END	12/31
WET_STEP	01:00:00
DRY_STEP	23:00:00
ROUTING_STEP	1
REPORT_STEP	00:05:00
INERTIAL_DAMPING	NONE
VARIABLE_STEP	0.750000
MINIMUM_STEP	0.5
LENGTHENING_STEP	0
MIN_SURFAREA	0.000000
NORMAL_FLOW_LIMITED	BOTH

[FILES]

[RAINGAGES]
RAIN1	CUMULATIVE	1.000000	1.000000	TIMESERIES	10-YEAR		

[HYDROGRAPHS]

[TEMPERATURE]

[ADJUSTMENTS]

[SUBCATCHMENTS]
ABOVE24	RAIN1	24-IN	7.000000	0.000000	500.000000	0.120000	0.000000
ABOVE50	RAIN1	COLLECT	32.000000	0.000000	500.000000	0.100000	0.000000
ABOVE60	RAIN1	60-OUT	1330.000000	0.000000	500.000000	0.059000	0.000000
SITE+	RAIN1	JCT-10	15.000000	0.000000	500.000000	0.120000	0.000000

[SUBAREAS]
ABOVE24	0.100000	0.001000	0.050000	0.050000	25.000000	OUTLET
ABOVE50	0.100000	0.001000	0.050000	0.050000	25.000000	OUTLET
ABOVE60	0.100000	0.001000	0.050000	0.050000	25.000000	OUTLET
SITE+	0.100000	0.001000	0.050000	0.050000	25.000000	OUTLET

[INFILTRATION]

[AQUIFERS]

[GROUNDWATER]

[GWF]

[SNOWPACKS]

[JUNCTIONS]
24-IN	714.100000	5.000000	0.000000	0.000000	3000.000000
24OUTLET	0.000000	0.000000	0.000000	0.000000	6000.000000
60-OUT	716.383000	5.000000	0.000000	0.000000	2900.000000
BYPASS	0.000000	0.000000	0.000000	0.000000	0.000000
COLLECT	0.000000	0.000000	0.000000	0.000000	5000.000000
; New Junction
JCT-10	715.131000	5.000000	0.000000	0.000000	5000.000000

[OUTFALLS]
OUTFALL	708.140000	FREE	NO
OVERFLOWOUTFALL	705.160000	FREE	NO

[DIVIDERS]

[STORAGE]

[CONDUITS]
10.0000000	60-OUT	JCT-10	284.330000	0.040000	-0.003000	0.000000	0.000000	0.000000
24"CULVERT	24-IN	24OUTLET	49.400000	0.023000	0.000000	713.570000	0.000000	0.000000
BYPASS-SWALE	BYPASS	OVERFLOWOUTFALL	622.000000	0.070000	717.690000	0.000000	0.000000	0.000000
; Splitted conduit
CDT-17	JCT-10	24-IN	237.000000	0.030000	0.000000	-0.090000	0.000000	0.000000
VONDELL2	24OUTLET	COLLECT	237.800000	0.030000	713.570000	710.860000	0.000000	0.000000
VONDELLEND	COLLECT	OUTFALL	237.800000	0.030000	710.860000	0.000000	0.000000	0.000000

[PUMPS]

[ORIFICES]

[WEIRS]
OVERFLOW	24-IN	24OUTLET	TRANSVERSE	4.210000	3.300000	NO	2	0.000000	YES
OVERFLOW-WEIR	24-IN	Bypass	TRAPEZOIDAL	3.590000	3.300000	NO	2	0.000000	YES

[XSECTIONS]
10.0000000	TRAPEZOIDAL	5.000000	8.000000	3.000000	3.000000	1	0
24"CULVERT	CIRCULAR	2.000000	8.000000	3.000000	3.000000	1	0
BYPASS-SWALE	TRAPEZOIDAL	3.000000	15.000000	4.000000	4.000000	1	0
CDT-17	TRAPEZOIDAL	5.000000	8.000000	3.000000	3.000000	1	0
VONDELL2	TRAPEZOIDAL	2.000000	7.000000	2.000000	2.000000	1	0
VONDELLEND	TRAPEZOIDAL	2.000000	10.000000	2.000000	2.000000	1	0
OVERFLOW	RECT_OPEN	3.000000	60.000000	0.000000	0.000000
OVERFLOW-WEIR	TRAPEZOIDAL	3.000000	39.000000	4.000000	4.000000

[TRANSECTS]

[LOSSES]
10.0000000	0.000000	0.000000	0.000000	NO	0.000000
24"CULVERT	0.500000	1.000000	0.000000	NO	0.000000
BYPASS-SWALE	0.000000	0.000000	0.000000	NO	0.000000
CDT-17	0.000000	0.000000	0.000000	NO	0.000000
VONDELL2	0.000000	0.000000	0.000000	NO	0.000000
VONDELLEND	0.000000	0.000000	0.000000	NO	0.000000

[CONTROLS]

[POLLUTANTS]

[LANDUSES]

[COVERAGES]

[BUILDUP]

[WASHOFF]

[TREATMENT]

[INFLOWS]

[DWF]

[RDII]

[LOADINGS]

[CURVES]

[TIMESERIES]
50-YR	0	0.000000
50-YR	1	0.054000
50-YR	2	0.108000
50-YR	3	0.150000
50-YR	4	0.243000
50-YR	5	0.324000
50-YR	6	0.400000
50-YR	7	0.473000
50-YR	8	0.595000
50-YR	9	0.750000
50-YR	10	1.216000
50-YR	11	1.916000
50-YR	12	2.500000
50-YR	13	3.378000
50-YR	14	3.919000
50-YR	15	4.400000
50-YR	16	4.527000
50-YR	17	4.662000
50-YR	18	4.750000
50-YR	19	4.824000
50-YR	20	4.865000
50-YR	21	4.900000
50-YR	22	4.954000
50-YR	23	4.981000
50-YR	24	5.000000

100-YR	0	0.000000
100-YR	1	0.050000
100-YR	2	0.120000
100-YR	3	0.177000
100-YR	4	0.287000
100-YR	5	0.375000
100-YR	6	0.472000
100-YR	7	0.590000
100-YR	8	0.720000
100-YR	9	0.885000
100-YR	10	1.250000
100-YR	11	2.100000
100-YR	12	2.950000
100-YR	13	3.800000
100-YR	14	4.650000
100-YR	15	5.015000
100-YR	16	5.180000
100-YR	17	5.310000
100-YR	18	5.428000
100-YR	19	5.525000
100-YR	20	5.613000
100-YR	21	5.723000
100-YR	22	5.780000
100-YR	23	5.850000
100-YR	24	5.900000

10-YEAR	0	0.000000
10-YEAR	1	0.039960
10-YEAR	2	0.079920
10-YEAR	3	0.111000
10-YEAR	4	0.179820
10-YEAR	5	0.239760
10-YEAR	6	0.296000
10-YEAR	7	0.350020
10-YEAR	8	0.440300
10-YEAR	9	0.555000
10-YEAR	10	0.899840
10-YEAR	11	1.417840
10-YEAR	12	1.850000
10-YEAR	13	2.499720
10-YEAR	14	2.900060
10-YEAR	15	3.256000
10-YEAR	16	3.349980
10-YEAR	17	3.449880
10-YEAR	18	3.515000
10-YEAR	19	3.569760
10-YEAR	20	3.600100
10-YEAR	21	3.626000
10-YEAR	22	3.665960
10-YEAR	23	3.685940
10-YEAR	24	3.700000

1-YR	0	0.000000
1-YR	1	0.024865
1-YR	2	0.049730
1-YR	3	0.069000
1-YR	4	0.111892
1-YR	5	0.149189
1-YR	6	0.184000
1-YR	7	0.217568
1-YR	8	0.273514
1-YR	9	0.345000
1-YR	10	0.559459
1-YR	11	0.881459
1-YR	12	1.150000
1-YR	13	1.554054
1-YR	14	1.802703
1-YR	15	2.024000
1-YR	16	2.082432
1-YR	17	2.144595
1-YR	18	2.185000
1-YR	19	2.219189
1-YR	20	2.237838
1-YR	21	2.254000
1-YR	22	2.278865
1-YR	23	2.291297
1-YR	24	2.300000


[PATTERNS]

[REPORT]
;Report Option Set: BASE, Base Simulation Report
INPUT NO
CONTINUITY YES
FLOWSTATS YES
CONTROLS NO
SUBCATCHMENTS  ALL
NODES  ALL
LINKS  ALL

[COORDINATES]
24-IN	19938.443291	9792.418874
24OUTLET	20000.855367	9795.453478
60-OUT	19425.758485	9856.055911
BYPASS	19950.547413	9714.536923
COLLECT	20159.274232	9795.453478
JCT-10	19759.025729	9789.668681
OUTFALL	20307.868671	9781.944893
OVERFLOWOUTFALL	19967.262739	9622.264153


[POLYGONS]

ABOVE24	19926.040898	10015.630380
ABOVE24	19926.040898	9943.584621
ABOVE24	19978.437813	9943.584621
ABOVE24	19978.437813	10015.630380
ABOVE24	19926.040898	10015.630380
ABOVE24	19926.040898	10015.630380

ABOVE50	20127.344848	10026.327483
ABOVE50	20127.344848	9950.188183
ABOVE50	20201.028041	9950.188183
ABOVE50	20201.028041	10026.327483
ABOVE50	20127.344848	10026.327483
ABOVE50	20127.344848	10026.327483

ABOVE60	19210.495516	10059.840278
ABOVE60	19210.495516	9959.958657
ABOVE60	19312.014541	9959.958657
ABOVE60	19312.014541	10059.840278
ABOVE60	19210.495516	10059.840278
ABOVE60	19210.495516	10059.840278

SITE+	19682.431986	10041.400246
SITE+	19682.431986	9964.442276
SITE+	19736.466306	9964.442276
SITE+	19736.466306	10043.037650
SITE+	19682.431986	10043.037650
SITE+	19682.431986	10041.400246

[VERTICES]

10.0000000	19462.072115	9836.804078
10.0000000	19479.776042	9825.329311
10.0000000	19488.464080	9817.460899
10.0000000	19516.659223	9802.051925
10.0000000	19551.903151	9796.314542
10.0000000	19585.343902	9786.806877
10.0000000	19620.915681	9785.167625
10.0000000	19662.060919	9792.052485
10.0000000	19701.402979	9791.888560
CDT-17	19765.989527	9789.429681
CDT-17	19798.610652	9786.479027
CDT-17	19813.691775	9788.446130
CDT-17	19843.034394	9784.347998
CDT-17	19901.391783	9785.823326
CDT-17	19922.538140	9790.741083
CDT-17	19937.859558	9792.330295
OVERFLOW	19968.058098	9820.569111

[SYMBOLS]
RAIN1	19674.966223	9898.532126

[MAP]
DIMENSIONS	19155.626858	9600.385347	20362.737329	10081.719084

