[TITLE]
;;Project Title/Notes

[OPTIONS]
;;Option             Value
FLOW_UNITS           CFS
INFILTRATION         GREEN_AMPT
FLOW_ROUTING         DYNWAVE
LINK_OFFSETS         ELEVATION
MIN_SLOPE            0
ALLOW_PONDING        YES
SKIP_STEADY_STATE    NO

IGNORE_GROUNDWATER   YES
START_DATE           01/01/2002
START_TIME           00:00:00
REPORT_START_DATE    01/01/2002
REPORT_START_TIME    00:00:00
END_DATE             01/02/2002
END_TIME             00:00:00
SWEEP_START          01/01
SWEEP_END            01/01
DRY_DAYS             5.000000
REPORT_STEP          00:01:00
WET_STEP             00:01:00
DRY_STEP             00:01:00
ROUTING_STEP         0:00:30 
RULE_STEP            00:00:00

INERTIAL_DAMPING     NONE
NORMAL_FLOW_LIMITED  SLOPE
FORCE_MAIN_EQUATION  H-W
VARIABLE_STEP        0.75
LENGTHENING_STEP     10.000000
MIN_SURFAREA         12.557000
MAX_TRIALS           10
HEAD_TOLERANCE       0.001000
SYS_FLOW_TOL         5.000000
LAT_FLOW_TOL         5.000000
MINIMUM_STEP         0
THREADS              1

[EVAPORATION]
;;Data Source    Parameters
;;-------------- ----------------
CONSTANT         0.0
RECOVERY         CLI#27
DRY_ONLY         YES

[RAINGAGES]
;;Name           Format    Interval SCF      Source    
;;-------------- --------- ------ ------ ----------
100YR_RAIN       INTENSITY 0.250000 1.0      TIMESERIES 100-YEAR        
10YR_RAIN        INTENSITY 0.250000 1.0      TIMESERIES 10-YEAR         
25YR_RAIN        INTENSITY 0.250000 1.0      TIMESERIES 25-YEAR         
2YR_RAIN         INTENSITY 0.250000 1.0      TIMESERIES 2-YEAR          
50YR_RAIN        INTENSITY 0.250000 1.0      TIMESERIES 50-YEAR         
5YR_RAIN         INTENSITY 0.250000 1.0      TIMESERIES 5-YEAR          
GAGE1            INTENSITY 0.250000 1.0      TIMESERIES JUL3-62015      

[SUBCATCHMENTS]
;;Name           Rain Gage        Outlet           Area     %Imperv  Width    %Slope   CurbLen  SnowPack        
;;-------------- ---------------- ---------------- -------- -------- -------- -------- -------- ----------------
1                10YR_RAIN        MA02014508S      26.164   53.492   1067.57  2.74     0.0                      
10               10YR_RAIN        MA01015937S      18.517   57.25    898.11   2.4      0.0                      
11               10YR_RAIN        MA01015903S      33.103   48.803   1200.82  3.17     0.0                      
12               10YR_RAIN        STUCTURE-60      52.005   49.413   1505.1   2.77     0.0                      
13               10YR_RAIN        MA01015103S      41.908   15.031   1351.12  4.38     0.0                      
14               10YR_RAIN        MA02012506S      33.985   32.126   1216.71  2.79     0.0                      
15               10YR_RAIN        MA020130X        35.729   16.783   1247.54  3.86     0.0                      
16               10YR_RAIN        MA01012206S      36.668   15.491   1263.83  2.99     0.0                      
17               10YR_RAIN        MA010121X        39.328   16.931   1308.87  2.68     0.0                      
18               10YR_RAIN        MA02010806S      20.525   30.179   945.55   2.4      0.0                      
19               10YR_RAIN        MA02011605S      37.72    17.768   1281.83  1.4      0.0                      
2                10YR_RAIN        MA0301207S       26.776   48.16    1079.98  2.96     0.0                      
20               10YR_RAIN        MA020126X        24.597   19.321   1035.11  2.42     0.0                      
21               10YR_RAIN        MA02013205S      20.495   15.111   944.86   3.4      0.0                      
22               10YR_RAIN        MA020138X        15.426   11.186   819.73   3.47     0.0                      
23               10YR_RAIN        MA020140X        17.552   22.364   874.39   2.7      0.0                      
24               10YR_RAIN        MA02014305S      15.046   9.232    809.57   6.67     0.0                      
25               10YR_RAIN        MA020147X        7.633    9.771    576.62   4.88     0.0                      
26               10YR_RAIN        MA030101X        13.25    33.983   759.72   4.78     0.0                      
27               10YR_RAIN        MA02015407S      25.806   31.762   1060.24  1.95     0.0                      
28               10YR_RAIN        MA02015417S      27.944   28.106   1103.29  4.78     0.0                      
29               10YR_RAIN        MA01015734S      30.874   66.23    1159.69  1.83     0.0                      
30               10YR_RAIN        MA01015746S      17.937   60.05    883.93   3.5      0.0                      
31               10YR_RAIN        MA01015707S      13.256   56.983   759.89   5.33     0.0                      
32               10YR_RAIN        MA01014405S      21.484   32.04    967.39   2.73     0.0                      
33               10YR_RAIN        MA01015109S      40.827   23.781   1333.58  2.25     0.0                      
34               10YR_RAIN        MA01015929S      22.189   61.188   983.13   0.98     0.0                      
35               10YR_RAIN        MA01016001S      15.855   54.478   831.05   2.52     0.0                      
36               10YR_RAIN        MA01014103S      23.748   11.297   1017.09  4.16     0.0                      
37               10YR_RAIN        MA01015919S      17.329   50.588   868.82   2.28     0.0                      
38               10YR_RAIN        MA01015911S      31.182   29.739   1165.46  2.73     0.0                      
39               10YR_RAIN        MA01015940S      16.285   56.162   842.24   2.48     0.0                      
4                10YR_RAIN        MA010112X        70.123   20.535   1747.73  0.98     0.0                      
40               10YR_RAIN        MA01016052S      26.332   53.846   1070.99  2.63     0.0                      
41               10YR_RAIN        MA01016043S      28.423   49.237   1112.7   2.86     0.0                      
5                10YR_RAIN        MA020105X        22.206   5.765    983.51   2.79     0.0                      
6                10YR_RAIN        MA020119X        39.356   18.287   1309.33  2.14     0.0                      
7                10YR_RAIN        MA010135X        49.294   17.054   1465.35  4.28     0.0                      
8                10YR_RAIN        MA01014006S      28.931   23.242   1122.6   2.67     0.0                      
9                10YR_RAIN        MA01015723S      42.343   59.136   1358.11  2.82     0.0                      

[SUBAREAS]
;;Subcatchment   N-Imperv   N-Perv     S-Imperv   S-Perv     PctZero    RouteTo    PctRouted 
;;-------------- ---------- ---------- ---------- ---------- ---------- ---------- ----------
1                0.013      0.1        0.052      0.25       25.0       OUTLET    
10               0.013      0.1        0.049      0.25       25.0       OUTLET    
11               0.013      0.1        0.056      0.25       25.0       OUTLET    
12               0.013      0.1        0.052      0.25       25.0       OUTLET    
13               0.013      0.15       0.065      0.25       25.0       OUTLET    
14               0.013      0.1        0.052      0.25       25.0       OUTLET    
15               0.013      0.1        0.061      0.25       25.0       OUTLET    
16               0.013      0.1        0.054      0.25       25.0       OUTLET    
17               0.013      0.15       0.051      0.25       25.0       OUTLET    
18               0.013      0.1        0.049      0.25       25.0       OUTLET    
19               0.013      0.1        0.037      0.25       25.0       OUTLET    
2                0.013      0.1        0.054      0.25       25.0       OUTLET    
20               0.013      0.1        0.049      0.25       25.0       OUTLET    
21               0.013      0.1        0.058      0.25       25.0       OUTLET    
22               0.013      0.1        0.058      0.25       25.0       OUTLET    
23               0.013      0.1        0.052      0.25       25.0       OUTLET    
24               0.013      0.1        0.08       0.25       25.0       OUTLET    
25               0.013      0.1        0.069      0.25       25.0       OUTLET    
26               0.013      0.1        0.068      0.25       25.0       OUTLET    
27               0.013      0.1        0.044      0.25       25.0       OUTLET    
28               0.013      0.15       0.068      0.5        25.0       OUTLET    
29               0.013      0.1        0.043      0.25       25.0       OUTLET    
30               0.013      0.1        0.059      0.25       25.0       OUTLET    
31               0.013      0.1        0.072      0.25       25.0       OUTLET    
32               0.013      0.1        0.052      0.25       25.0       OUTLET    
33               0.013      0.15       0.047      0.25       25.0       OUTLET    
34               0.013      0.15       0.031      0.25       25.0       OUTLET    
35               0.013      0.1        0.05       0.25       25.0       OUTLET    
36               0.013      0.1        0.064      0.25       25.0       OUTLET    
37               0.013      0.1        0.048      0.25       25.0       OUTLET    
38               0.013      0.15       0.052      0.25       25.0       OUTLET    
39               0.013      0.1        0.049      0.25       25.0       OUTLET    
4                0.013      0.15       0.031      0.25       25.0       OUTLET    
40               0.013      0.1        0.051      0.25       25.0       OUTLET    
41               0.013      0.15       0.053      0.25       25.0       OUTLET    
5                0.013      0.2        0.052      0.25       25.0       OUTLET    
6                0.013      0.1        0.046      0.25       25.0       OUTLET    
7                0.013      0.1        0.065      0.25       25.0       OUTLET    
8                0.013      0.1        0.051      0.25       25.0       OUTLET    
9                0.013      0.1        0.053      0.25       25.0       OUTLET    

[INFILTRATION]
;;Subcatchment   Param1     Param2     Param3     Param4     Param5    
;;-------------- ---------- ---------- ---------- ---------- ----------
1                9.071232   0.522894   0.277602   7          0         
10               9.071232   0.522894   0.277602   7          0         
11               9.071232   0.522894   0.277602   7          0         
12               9.071232   0.522894   0.277602   7          0         
13               9.071232   0.522894   0.277602   7          0         
14               9.071232   0.522894   0.277602   7          0         
15               9.071232   0.522894   0.277602   7          0         
16               9.071232   0.522894   0.277602   7          0         
17               9.071232   0.522894   0.277602   7          0         
18               9.071232   0.522894   0.277602   7          0         
19               9.071232   0.522894   0.277602   7          0         
2                9.071232   0.522894   0.277602   7          0         
20               9.071232   0.522894   0.277602   7          0         
21               9.071232   0.522894   0.277602   7          0         
22               9.071232   0.522894   0.277602   7          0         
23               9.071232   0.522894   0.277602   7          0         
24               9.071232   0.522894   0.277602   7          0         
25               3.0        0.5        0.25       7          0         
26               9.071232   0.522894   0.277602   7          0         
27               9.071232   0.522894   0.277602   7          0         
28               9.071232   0.522894   0.277602   7          0         
29               9.071232   0.522894   0.277602   7          0         
30               9.071232   0.522894   0.277602   7          0         
31               9.071232   0.522894   0.277602   7          0         
32               9.071232   0.522894   0.277602   7          0         
33               9.071232   0.522894   0.277602   7          0         
34               9.071232   0.522894   0.277602   7          0         
35               9.071232   0.522894   0.277602   7          0         
36               9.071232   0.522894   0.277602   7          0         
37               9.071232   0.522894   0.277602   7          0         
38               9.071232   0.522894   0.277602   7          0         
39               9.071232   0.522894   0.277602   7          0         
4                9.071232   0.522894   0.277602   7          0         
40               9.071232   0.522894   0.277602   7          0         
41               9.071232   0.522894   0.277602   7          0         
5                9.071232   0.522894   0.277602   7          0         
6                9.071232   0.522894   0.277602   7          0         
7                9.071232   0.522894   0.277602   7          0         
8                9.071232   0.522894   0.277602   7          0         
9                9.071232   0.522894   0.277602   7          0         

[JUNCTIONS]
;;Name           Elevation  MaxDepth   InitDepth  SurDepth   Aponded   
;;-------------- ---------- ---------- ---------- ---------- ----------
CONNECT          240.84     2.870007   0.0        0.0        0.0       
CONNECT13        270.14     0.259994   0.0        0.0        0.0       
CONNECT18        270.570129 0.579865   0.0        0.0        0.0       
CONNECT19        267.596269 0.833724   0.0        0.0        0.0       
CONNECT20        265.498943 1.121053   0.0        0.0        0.0       
CONNECT21        262.509371 0.510618   0.0        0.0        0.0       
CONNECT23        259.471792 8.97822    0.0        0.0        0.0       
CONNECT24        259.024186 0.495803   0.0        0.0        0.0       
CONNECT25        255.233096 0.216901   0.0        0.0        0.0       
CONNECT27        252.398137 10.131861  0.0        0.0        0.0       
CONNECT8         282.37     0.959987   0.0        0.0        0.0       
MA010110X        237.0      0.610001   0.0        0.0        0.0       
MA010111X        240.87     0.590007   0.0        0.0        0.0       
MA010112X        242.27     1.580006   0.0        0.0        0.0       
MA010113X        243.46     0.319999   0.0        0.0        0.0       
MA010114X        242.74     1.01       0.0        0.0        0.0       
MA010115X        243.0      2.979996   0.0        0.0        0.0       
MA010116X        244.7      4.8        0.0        0.0        0.0       
MA010117X        245.0      7.710007   0.0        0.0        0.0       
MA010118X        245.5      4.5        0.0        0.0        0.0       
MA010119X        248.0      2.130005   0.0        0.0        0.0       
MA010120X        250.3      0.869998   0.0        0.0        0.0       
MA010121X        251.9      6.659998   0.0        0.0        0.0       
MA01012203S      255.16     6.429996   0.0        0.0        0.0       
MA01012204S      260.78     3.820006   0.0        0.0        0.0       
MA01012205S      263.94     4.169985   0.0        0.0        0.0       
MA01012206S      267.64     5.000015   0.0        0.0        0.0       
MA010122X        252.58     5.740007   0.0        0.0        0.0       
MA010123X        252.92     0.150007   0.0        0.0        0.0       
MA010124X        253.49     0.239996   0.0        0.0        0.0       
MA010125X        253.63     0.250005   0.0        0.0        0.0       
MA010126X        254.15     0.480005   0.0        0.0        0.0       
MA010127X        254.84     0.290005   0.0        0.0        0.0       
MA010128X        255.06     0.229993   0.0        0.0        0.0       
MA010129X        255.32     0.750007   0.0        0.0        0.0       
MA010130X        255.31     0.290006   0.0        0.0        0.0       
MA010131X        255.15     2.379999   0.0        0.0        0.0       
MA010132X        255.27     0.679997   0.0        0.0        0.0       
MA010133X        255.7      0.990002   0.0        0.0        0.0       
MA010134X        257.02     0.379994   0.0        0.0        0.0       
MA010135X        258.34     0.450009   0.0        0.0        0.0       
MA010136X        259.18     1.960015   0.0        0.0        0.0       
MA010137X        259.77     1.279988   0.0        0.0        0.0       
MA010138X        260.49     1.400015   0.0        0.0        0.0       
MA010139X        260.72     0.399995   0.0        0.0        0.0       
MA01014002S      266.36     7.999985   0.0        0.0        0.0       
MA01014003S      268.47     13.359987  0.0        0.0        0.0       
MA01014004S      270.48     5.349987   0.0        0.0        0.0       
MA01014005S      271.2      4.919995   0.0        0.0        0.0       
MA01014006S      273.49     4.029989   0.0        0.0        0.0       
MA01014007S      279.18     4.540001   0.0        0.0        0.0       
MA010140X        261.75     0.51001    0.0        0.0        0.0       
MA01014101S      263.77     0.159993   0.0        0.0        0.0       
MA01014102S      265.32     4.16999    0.0        0.0        0.0       
MA01014103S      265.76     4.819987   0.0        0.0        0.0       
MA01014104S      268.04     5.319985   0.0        0.0        0.0       
MA010141X        262.69     0.739993   0.0        0.0        0.0       
MA010142X        263.76     0.400004   0.0        0.0        0.0       
MA010143X        264.71     1.52999    0.0        0.0        0.0       
MA01014401S      268.32     0.5        0.0        0.0        0.0       
MA01014402S      270.85     5.870001   0.0        0.0        0.0       
MA01014403S      271.93     5.379998   0.0        0.0        0.0       
MA01014404S      272.97     4.880006   0.0        0.0        0.0       
MA01014405S      274.24     4.420004   0.0        0.0        0.0       
MA01014406S      282.39     4.689987   0.0        0.0        0.0       
MA01014407S      288.46     6.930015   0.0        0.0        0.0       
MA010144X        265.73     0.720012   0.0        0.0        0.0       
MA010145X        266.25     0.440002   0.0        0.0        0.0       
MA010146X        266.3      0.490009   0.0        0.0        0.0       
MA010147X        266.56     0.570005   0.0        0.0        0.0       
MA010148X        266.72     1.420015   0.0        0.0        0.0       
MA010149X        267.14     0.500015   0.0        0.0        0.0       
MA010150X        267.43     0.480004   0.0        0.0        0.0       
MA01015101S      269.35     5.290015   0.0        0.0        0.0       
MA01015102S      270.34     7.130001   0.0        0.0        0.0       
MA01015103S      273.15     5.450006   0.0        0.0        0.0       
MA01015104S      275.99     6.349996   0.0        0.0        0.0       
MA01015105S      279.92     5.990004   0.0        0.0        0.0       
MA01015106S      286.43     6.510002   0.0        0.0        0.0       
MA01015107S      294.42     5.889998   0.0        0.0        0.0       
MA01015108S      295.17     5.359999   0.0        0.0        0.0       
MA01015109S      296.43     6.360009   0.0        0.0        0.0       
MA01015110S      297.95     4.31001    0.0        0.0        0.0       
MA010151X        267.72     0.429994   0.0        0.0        0.0       
MA010152X        268.04     0.549996   0.0        0.0        0.0       
MA010153X        268.68     0.649987   0.0        0.0        0.0       
MA0101543S       290.96     8.719993   0.0        0.0        0.0       
MA010154X        269.28     1.200011   0.0        0.0        0.0       
MA010155X        269.61     2.729996   0.0        0.0        0.0       
MA010156X        270.44     0.760012   0.0        0.0        0.0       
MA01015702S      273.47     10.459993  0.0        0.0        0.0       
MA01015703S      274.25     9.660004   0.0        0.0        0.0       
MA01015704S      276.5      8.100006   0.0        0.0        0.0       
MA01015705S      278.83     6.939989   0.0        0.0        0.0       
MA01015706S      279.79     7.150002   0.0        0.0        0.0       
MA01015707S      282.54     7.739999   0.0        0.0        0.0       
MA01015708S      282.93     8.379998   0.0        0.0        0.0       
MA01015709S      283.48     6.930004   0.0        0.0        0.0       
MA01015710S      284.02     5.430012   0.0        0.0        0.0       
MA01015711S      284.56     11.17999   0.0        0.0        0.0       
MA01015712S      285.06     11.559995  0.0        0.0        0.0       
MA01015713S      287.18     15.980004  0.0        0.0        0.0       
MA01015714S      288.72     6.01999    0.0        0.0        0.0       
MA01015715S      288.83     6.360002   0.0        0.0        0.0       
MA01015716S      288.99     6.210012   0.0        0.0        0.0       
MA01015717S      291.23     6.150005   0.0        0.0        0.0       
MA01015718S      291.42     5.759993   0.0        0.0        0.0       
MA01015719S      291.87     6.899989   0.0        0.0        0.0       
MA01015720S      292.34     6.839993   0.0        0.0        0.0       
MA01015721S      292.66     7.290012   0.0        0.0        0.0       
MA01015722S      293.53     6.339995   0.0        0.0        0.0       
MA01015723S      294.44     8.169985   0.0        0.0        0.0       
MA01015724S      295.48     7.449993   0.0        0.0        0.0       
MA01015725S      296.77     6.249989   0.0        0.0        0.0       
MA01015726S      298.7      4.849988   0.0        0.0        0.0       
MA01015727S      298.85     4.669989   0.0        0.0        0.0       
MA01015728S      300.04     7.71       0.0        0.0        0.0       
MA01015729S      300.75     10.970001  0.0        0.0        0.0       
MA01015730S      301.87     9.279994   0.0        0.0        0.0       
MA01015731S      302.93     7.129998   0.0        0.0        0.0       
MA01015732S      303.11     6.719987   0.0        0.0        0.0       
MA01015733S      308.31     7.230009   0.0        0.0        0.0       
MA01015734S      309.0      9.619995   0.0        0.0        0.0       
MA01015735S      312.51     6.509989   0.0        0.0        0.0       
MA01015739S      283.18     5.30999    0.0        0.0        0.0       
MA01015740S      283.67     4.909987   0.0        0.0        0.0       
MA01015741S      283.56     4.850004   0.0        0.0        0.0       
MA01015742S      283.53     8.019988   0.0        0.0        0.0       
MA01015743S      286.34     6.980007   0.0        0.0        0.0       
MA01015744S      288.16     5.139988   0.0        0.0        0.0       
MA01015745S      289.06     3.980009   0.0        0.0        0.0       
MA01015746S      295.34     9.619991   0.0        0.0        0.0       
MA01015747S      299.47     4.320009   0.0        0.0        0.0       
MA010157X        270.74     0.809988   0.0        0.0        0.0       
MA010158X        271.6      5.63999    0.0        0.0        0.0       
MA01015901S      277.0      12.429993  0.0        0.0        0.0       
MA01015902S      279.47     11.369996  0.0        0.0        0.0       
MA01015903S      282.64     9.699996   0.0        0.0        0.0       
MA01015904S      284.3      9.300006   0.0        0.0        0.0       
MA01015905S      286.71     8.849998   0.0        0.0        0.0       
MA01015906S      288.07     9.280006   0.0        0.0        0.0       
MA01015907S      292.24     9.74999    0.0        0.0        0.0       
MA01015908S      292.86     9.020005   0.0        0.0        0.0       
MA01015909S      293.06     7.580015   0.0        0.0        0.0       
MA01015910S      297.94     4.709994   0.0        0.0        0.0       
MA01015911S      300.02     5.539998   0.0        0.0        0.0       
MA01015912S      303.4      5.409998   0.0        0.0        0.0       
MA01015913S      301.6      6.579993   0.0        0.0        0.0       
MA01015915S      305.77     3.819996   0.0        0.0        0.0       
MA01015916S      305.94     5.609988   0.0        0.0        0.0       
MA01015917       306.93     4.839989   0.0        0.0        0.0       
MA01015918S      306.18     4.950005   0.0        0.0        0.0       
MA01015919S      309.98     6.919994   0.0        0.0        0.0       
MA01015920S      313.59     9.279995   0.0        0.0        0.0       
MA01015924S      289.27     5.839985   0.0        0.0        0.0       
MA01015925S      291.61     7.349991   0.0        0.0        0.0       
MA01015926S      295.68     4.640007   0.0        0.0        0.0       
MA01015927S      296.23     5.150005   0.0        0.0        0.0       
MA01015928S      296.39     8.330001   0.0        0.0        0.0       
MA01015929S      300.56     8.660001   0.0        0.0        0.0       
MA01015930S      304.46     4.510001   0.0        0.0        0.0       
MA01015935S      293.88     12.889989  0.0        0.0        0.0       
MA01015936S      299.71     5.890006   0.0        0.0        0.0       
MA01015937S      305.9      7.189996   0.0        0.0        0.0       
MA01015938S      303.31     7.94       0.0        0.0        0.0       
MA01015939S      308.04     7.299996   0.0        0.0        0.0       
MA01015940S      309.59     6.540005   0.0        0.0        0.0       
MA01015941S      315.1      1.290015   0.0        0.0        0.0       
MA01015942S      311.59     5.459988   0.0        0.0        0.0       
MA01016001S      268.35     15.109991  0.0        0.0        0.0       
MA01016002S      271.004    14.335996  0.0        0.0        0.0       
MA01016003S      271.08     13.460009  0.0        0.0        0.0       
MA01016003S-N0   273.23     17.699993  0.0        0.0        0.0       
MA01016004S      279.65     9.249994   0.0        0.0        0.0       
MA01016005S      281.25     9.51001    0.0        0.0        0.0       
MA01016006S      282.13     9.760015   0.0        0.0        0.0       
MA01016007S      284.46     9.599998   0.0        0.0        0.0       
MA01016008S      285.03     9.70999    0.0        0.0        0.0       
MA01016009S      287.16     9.929996   0.0        0.0        0.0       
MA01016010S      289.1      10.790015  0.0        0.0        0.0       
MA01016011S      291.61     12.159989  0.0        0.0        0.0       
MA01016012S      294.84     13.189999  0.0        0.0        0.0       
MA01016013S      299.27     8.700001   0.0        0.0        0.0       
MA01016014S      300.38     9.449987   0.0        0.0        0.0       
MA01016015S      306.45     11.569989  0.0        0.0        0.0       
MA01016016S      306.6      11.620001  0.0        0.0        0.0       
MA01016017S      307.09     11.16      0.0        0.0        0.0       
MA01016018S      309.12     6.11999    0.0        0.0        0.0       
MA01016019S      310.01     5.780009   0.0        0.0        0.0       
MA01016020S      310.53     5.790007   0.0        0.0        0.0       
MA01016021S      312.14     4.909988   0.0        0.0        0.0       
MA01016022S      314.34     5.070004   0.0        0.0        0.0       
MA01016023S      318.59     0.779995   0.0        0.0        0.0       
MA01016041S      292.89     11.460006  0.0        0.0        0.0       
MA01016042S      293.74     10.900015  0.0        0.0        0.0       
MA01016043S      296.37     6.279994   0.0        0.0        0.0       
MA01016044S      296.81     6.299985   0.0        0.0        0.0       
MA01016045S      298.19     7.530001   0.0        0.0        0.0       
MA01016046S      299.21     9.200004   0.0        0.0        0.0       
MA01016047S      300.16     10.010013  0.0        0.0        0.0       
MA01016048S      301.94     11.179995  0.0        0.0        0.0       
MA01016049S      306.48     13.490001  0.0        0.0        0.0       
MA01016050S      308.27     11.189991  0.0        0.0        0.0       
MA01016051S      308.5      10.309998  0.0        0.0        0.0       
MA01016052S      310.13     8.35999    0.0        0.0        0.0       
MA01016053S      310.59     6.130001   0.0        0.0        0.0       
MA01016054S      311.95     5.05       0.0        0.0        0.0       
MA020101X        243.0      2.839996   0.0        0.0        0.0       
MA020102X        244.5      1.009995   0.0        0.0        0.0       
MA020103X        243.8      3.160007   0.0        0.0        0.0       
MA020105X        248.77     0.289998   0.0        0.0        0.0       
MA020107X        252.29     0.340005   0.0        0.0        0.0       
MA02010802S      254.8      9.120013   0.0        0.0        0.0       
MA02010805S      254.77     9.749989   0.0        0.0        0.0       
MA02010806S      260.77     4.900013   0.0        0.0        0.0       
MA02010807S      261.0      5.160004   0.0        0.0        0.0       
MA020108X        252.98     0.370006   0.0        0.0        0.0       
MA020109X        253.18     0.249993   0.0        0.0        0.0       
MA020110X        253.92     0.869993   0.0        0.0        0.0       
MA020112X        256.1      0.41001    0.0        0.0        0.0       
MA020113X        256.38     0.37       0.0        0.0        0.0       
MA020114X        256.58     0.229998   0.0        0.0        0.0       
MA020115X        257.18     0.439995   0.0        0.0        0.0       
MA02011601S-N1   258.95     8.78999    0.0        0.0        0.0       
MA02011602S      266.42     7.099989   0.0        0.0        0.0       
MA02011603S      267.35     5.880011   0.0        0.0        0.0       
MA02011604S      269.06     7.529996   0.0        0.0        0.0       
MA02011605S      270.4      6.730005   0.0        0.0        0.0       
MA020116X        258.51     0.150004   0.0        0.0        0.0       
MA020117X        259.4      0.459985   0.0        0.0        0.0       
MA020118X        260.26     0.259989   0.0        0.0        0.0       
MA020119X        260.73     0.180004   0.0        0.0        0.0       