[TITLE]
;;Project Title/Notes

[OPTIONS]
;;Option             Value
FLOW_UNITS           CFS
INFILTRATION         HORTON
FLOW_ROUTING         DYNWAVE
LINK_OFFSETS         DEPTH
MIN_SLOPE            0
ALLOW_PONDING        NO
SKIP_STEADY_STATE    NO

START_DATE           01/01/2001
START_TIME           00:00:00
REPORT_START_DATE    01/01/2001
REPORT_START_TIME    00:00:00
END_DATE             01/02/2001
END_TIME             00:00:00
SWEEP_START          1/1
SWEEP_END            12/31
DRY_DAYS             0
REPORT_STEP          00:15:00
WET_STEP             00:01:00
DRY_STEP             00:15:00
ROUTING_STEP         0:00:20 
RULE_STEP            00:00:00

INERTIAL_DAMPING     PARTIAL
NORMAL_FLOW_LIMITED  BOTH
FORCE_MAIN_EQUATION  H-W
VARIABLE_STEP        0.75
LENGTHENING_STEP     10
MIN_SURFAREA         1.2
MAX_TRIALS           0
HEAD_TOLERANCE       0
SYS_FLOW_TOL         5
LAT_FLOW_TOL         5
MINIMUM_STEP         0.5
THREADS              1

[EVAPORATION]
;;Data Source    Parameters
;;-------------- ----------------
CONSTANT         0.0
DRY_ONLY         NO

[RAINGAGES]
;;Name           Format    Interval SCF      Source    
;;-------------- --------- ------ ------ ----------
GAGE1            VOLUME    0.50000  1.0      TIMESERIES SERIES1         

[SUBCATCHMENTS]
;;Name           Rain Gage        Outlet           Area     %Imperv  Width    %Slope   CurbLen  SnowPack        
;;-------------- ---------------- ---------------- -------- -------- -------- -------- -------- ----------------
4698             GAGE1            N4688            402.42   29.04    3000     1.1      0                        
4696             GAGE1            N4688            567.42   34.35    3500     0.7      0                        
4694             GAGE1            N4688            354.17   25.22    2500     0.9      0                        
4692             GAGE1            N4688            325.42   48.57    2000     1.1      0                        
4690             GAGE1            N4688            506.12   46.19    3000     0.5      0                        
4688             GAGE1            N4688            486.53   100      211932   0.015    0                        
4686             GAGE1            N4686            449.32   30.35    2500     0.3      0                        
4679             GAGE1            N4679            80.98    12.5     800      1.1      0                        
4677             GAGE1            N4677            176.08   38.9     1200     0.9      0                        
4678             GAGE1            N4674            342.03   51.21    2000     0.5      0                        
4676             GAGE1            N4674            98.06    25       800      1.3      0                        
4675             GAGE1            N4674            84.39    20       750      1.3      0                        
4674             GAGE1            N4674            63.35    100      27595    0.015    0                        
4668             GAGE1            N4660            224.82   50.5     1200     1.1      0                        
4666             GAGE1            N4660            341.19   24.3     2000     1.1      0                        
4664             GAGE1            N4660            182.7    26.5     1200     1.1      0                        
4662             GAGE1            N4660            327.92   34.6     2000     1.1      0                        
4660             GAGE1            N4660            201.57   94.1     1300     0.06     0                        
4658             GAGE1            N4658            330.31   44       2000     0.7      0                        
4654             GAGE1            N4654            424.73   46.2     4000     0.9      0                        
4652             GAGE1            N4620            998.78   43.4     8000     1.1      0                        
4650             GAGE1            N4620            708.69   54.7     5100     1.1      0                        
4648             GAGE1            N4620            727.22   33.7     5000     0.5      0                        
4647             GAGE1            N4647            111.03   15       1000     0.9      0                        
4646             GAGE1            N4620            1762.67  45       19000    0.5      0                        
4644             GAGE1            N4620            453.72   29.4     4500     0.9      0                        
4642             GAGE1            N4642            547.41   33       7000     0.3      0                        
4640             GAGE1            N4632            388.72   35       3000     0.9      0                        
4638             GAGE1            N4632            209.61   70.6     1150     0.9      0                        
4636             GAGE1            N4632            92.73    35.9     850      1.1      0                        
4634             GAGE1            N4632            63.27    25       450      1.1      0                        
4632             GAGE1            N4632            292.26   100      127308   0.015    0                        
4630             GAGE1            N4624            33.04    34.6     350      0.9      0                        
4628             GAGE1            N4624            57.15    64.3     400      0.9      0                        
4626             GAGE1            N4624            265.02   67.5     1500     0.3      0                        
4624             GAGE1            N4624            24.68    100      1075     0.015    0                        
4622             GAGE1            N4622            110.62   53.5     850      0.3      0                        
4620             GAGE1            N4620            2276.99  100      991861   0.015    0                        
4618             GAGE1            N4614            71.82    85.8     300      0.3      0                        
4616             GAGE1            N4614            50.38    79.9     300      0.3      0                        
4614             GAGE1            N4614            18.73    100      815879   0.015    0                        
3198             GAGE1            N3198            116.46   45       450      0.5      0                        
3156             GAGE1            N3156            359.73   16       1700     0.67     0                        
3170             GAGE1            N3170            1020.18  35       2000     0.3      0                        
3174             GAGE1            N3174            315.02   35       1500     0.5      0                        
3168             GAGE1            N3168            70.3     43.4     500      0.1      0                        
3162             GAGE1            N3162            24.87    37.1     100      0.4      0                        
3164             GAGE1            N3164            44.38    8.9      350      0.67     0                        
3186             GAGE1            N3186            344.83   15       1700     0.9      0                        
3182             GAGE1            N3182            590.47   15       2000     0.3      0                        
3178             GAGE1            N3178            205.35   65       1000     0.5      0                        
3132             GAGE1            N3650            149.06   45       500      0.5      0                        
3136             GAGE1            N3675            227.92   20       1000     0.5      0                        
3144             GAGE1            N3710            252.72   20       1000     0.5      0                        
3148             GAGE1            N3725            147.09   30       500      0.5      0                        
3152             GAGE1            N3750            35.85    37       500      0.5      0                        
3160             GAGE1            N3810            201.14   35       1200     0.5      0                        
3192             GAGE1            N3760            114.37   30       500      0.5      0                        
3194             GAGE1            N3785            77.16    25       500      0.4      0                        
3196             GAGE1            N3196            187.64   35       1000     0.4      0                        
3050             GAGE1            N3620            203.07   20       1200     0.2      0                        
3045             GAGE1            N3590            181.29   25       1100     0.5      0                        
3040             GAGE1            N3040            213.43   40       1200     0.5      0                        
3035             GAGE1            N3570            195.45   25       1100     0.4      0                        
3030             GAGE1            N3030            519.92   50       2500     0.2      0                        
3025             GAGE1            N3555            529.7    40       2500     0.1      0                        
3300             GAGE1            N3300            249.31   30       1200     0.3      0                        
3299             GAGE1            N3369            72.62    25       300      0.4      0                        
3298             GAGE1            N3380            49.21    25       200      0.3      0                        
3297             GAGE1            N3297            71.97    6        300      0.3      0                        
3295             GAGE1            N3295            113.54   40       500      0.4      0                        
3293             GAGE1            N3293            73.01    25       300      0.3      0                        
3291             GAGE1            N3291            77.11    10       300      0.3      0                        
3289             GAGE1            N3289            47.96    45       200      0.3      0                        
3296             GAGE1            N3361            477.5    15       2000     0.5      0                        
3283             GAGE1            N3358            103.92   85       1200     0.5      0                        
3294             GAGE1            N3355            413.11   35       2000     0.5      0                        
3292             GAGE1            N3292            144.44   35       500      0.5      0                        
3290             GAGE1            N3520            38.15    32.8     100      0.5      0                        
3288             GAGE1            N3505            61.89    27.7     300      0.5      0                        
3287             GAGE1            N3287            121.03   35       1800     0.5      0                        
3286             GAGE1            N3480            519.14   30       1500     0.5      0                        
3284             GAGE1            N3455            69.96    25.5     300      0.3      0                        
3282             GAGE1            N3447            673.95   86.3     3500     0.5      0                        
3281             GAGE1            N3281            360.95   50       1700     0.3      0                        
3280             GAGE1            N3349            172.04   55       900      0.5      0                        
3278             GAGE1            N3441            265.36   30       1200     0.5      0                        
3276             GAGE1            N3343            119.67   50       500      0.4      0                        
3274             GAGE1            N3274            436.87   26       2500     0.2      0                        
3272             GAGE1            N3272            259.53   55       1200     0.9      0                        
3270             GAGE1            N3270            106.91   28       400      0.3      0                        
3268             GAGE1            N3268            106.71   86.8     400      0.5      0                        
3267             GAGE1            N3267            138.61   40       500      0.4      0                        
3266             GAGE1            N3266            516.24   20       2500     0.3      0                        
3264             GAGE1            N3435            276.44   53.5     1800     0.3      0                        
3262             GAGE1            N3262            343.91   46       2500     0.3      0                        
3260             GAGE1            N3334            336      40       1300     0.3      0                        
3258             GAGE1            N3258            546.26   35       3000     0.2      0                        
3256             GAGE1            N3256            285.21   40       1500     0.2      0                        
3254             GAGE1            N3329            616.39   45       3400     0.2      0                        
3252             GAGE1            N3252            671.35   25       2500     0.2      0                        
3250             GAGE1            N3250            172.53   40       800      0.2      0                        
3248             GAGE1            N3327            435.94   25       2500     0.2      0                        
3246             GAGE1            N3246            453.27   10       2500     0.2      0                        
3244             GAGE1            N3314            590.8    30       2200     0.2      0                        
5124             GAGE1            N5120            81.38    70       300      0.9      0                        
5122             GAGE1            N5120            76.52    35       350      0.9      0                        
5120             GAGE1            N5120            40.27    100      1754161  0.01     0                        
5114             GAGE1            N5110            193.88   33.7     1800     0.9      0                        
5112             GAGE1            N5110            26.12    38.4     200      1        0                        
5110             GAGE1            N5110            6.89     100      300128   0.01     0                        
5108             GAGE1            N5100            182.49   34       1500     1.1      0                        
5104             GAGE1            N5100            232.13   39.8     1800     0.9      0                        
5102             GAGE1            N5100            455.46   26.6     3500     0.9      0                        
5100             GAGE1            N5100            356.81   100      15542644 0.01     0                        
5098             GAGE1            N5098            2.6      100      113256   0.5      0                        
5096             GAGE1            N5098            52.79    24.4     500      0.9      0                        
5094             GAGE1            N5098            23.75    31.1     250      0.9      0                        
5092             GAGE1            N5088            266.6    26.2     2500     0.5      0                        
5090             GAGE1            N5088            180.29   42.6     1400     0.5      0                        
5088             GAGE1            N5088            53.89    100      23477448 0.9      0                        
5086             GAGE1            N5086            323.92   46       2800     0.5      0                        
5084             GAGE1            N5084            109.52   20       1000     0.65     0                        
5074             GAGE1            N5068            256.35   36.2     2500     0.5      0                        
5072             GAGE1            N5068            434.23   21.6     3700     0.2      0                        
5070             GAGE1            N5068            835.99   42       4000     0.5      0                        
5068             GAGE1            N5068            156.71   100      6826287  0.5      0                        
5064             GAGE1            N5068            391.04   26.6     4000     0.5      0                        
5060             GAGE1            N5060            1285.65  35       6500     0.95     0                        
5056             GAGE1            N5460            1326.12  15       6500     1.1      0                        
5054             GAGE1            N5460            406.35   25.4     4000     0.5      0                        
5052             GAGE1            N5052            638.48   22.6     4500     0.1      0                        
5050             GAGE1            N5050            679.61   22.3     5000     0.1      0                        
5049             GAGE1            N5460            349.69   100      1523     0.5      0                        
5046             GAGE1            N5046            743.23   21.6     3500     0.1      0                        
5044             GAGE1            N5044            150.44   45       800      0.2      0                        
5042             GAGE1            N5042            203.58   30.9     2000     0.5      0                        
5038             GAGE1            N5038            270.88   30       1500     0.1      0                        
5034             GAGE1            N5034            265.22   34.3     1500     0.1      0                        
5030             GAGE1            N5030            130.77   30.2     1000     0.1      0                        
5026             GAGE1            N5026            204.01   20       1500     0.1      0                        
5022             GAGE1            N5022            520.35   20       3300     0.2      0                        
5018             GAGE1            N5435            127.56   15       1000     0.5      0                        
5016             GAGE1            N5430            189.11   15       1100     0.7      0                        
5012             GAGE1            N5425            576.02   15       9000     0.6      0                        
5014             GAGE1            N5014            301.01   10       7500     0.6      0                        
5010             GAGE1            N5410            651.88   15       9000     0.5      0                        
1460             GAGE1            N1460            59.35    22.1     800      1        0                        
1001             GAGE1            N1450            751.11   100      327183   0.03     0                        
1002             GAGE1            N1430            74.28    100      32356    0.03     0                        
1003             GAGE1            N1420            1025.16  100      446559   0.03     0                        
1004             GAGE1            N1004            4        100      1742     0.03     0                        
1005             GAGE1            N1410            202.53   100      88222    0.03     0                        
1006             GAGE1            N1400            110.36   50       800      0.8      0                        
1007             GAGE1            N1370            221.87   40       1300     0.8      0                        
1008             GAGE1            N1330            94.18    50       750      0.5      0                        
1009             GAGE1            N1009            40.83    39.1     300      0.9      0                        
1010             GAGE1            N1010            59.6     15       200      0.9      0                        
1011             GAGE1            N1300            154.82   50       500      0.2      0                        
1012             GAGE1            N1012            160.61   20       1000     0.5      0                        
1013             GAGE1            N1270            530.44   35       1000     0.3      0                        
1014             GAGE1            N1014            189.23   25       1100     0.5      0                        
1015             GAGE1            N1250            753.88   35       1500     0.2      0                        
1016             GAGE1            N1016            261.86   45       1200     0.5      0                        
1017             GAGE1            N1017            206.24   35       500      0.3      0                        
1018             GAGE1            N1200            1027.52  30       2300     0.2      0                        
1019             GAGE1            N1019            257.8    35       1100     0.5      0                        
1020             GAGE1            N1020            521.35   35       1300     0.2      0                        
1021             GAGE1            N1180            321.65   30       1000     0.3      0                        
1022             GAGE1            N1022            62.24    100      271111   3        0                        
1023             GAGE1            N1023            74.27    100      32352    3        0                        
1024             GAGE1            N1100            401.62   27       1100     0.1      0                        
1025             GAGE1            N1130            171.89   25       400      0.3      0                        
1026             GAGE1            N1150            750.6    35       1500     0.3      0                        
1027             GAGE1            N1027            281.85   10.1     2100     0.8      0                        
1028             GAGE1            N1028            12.27    100      534448   3        0                        
1029             GAGE1            N1029            177.21   100      771926   3        0                        
1030             GAGE1            N1030            46.88    100      4209     3        0                        
1031             GAGE1            N1450            810.15   14.8     5000     0.95     0                        
1032             GAGE1            N1450            221.19   13.1     1800     1        0                        
1033             GAGE1            N1450            62.29    36.7     250      0.8      0                        
1034             GAGE1            N1450            211.23   13.1     2800     1.11     0                        
1035             GAGE1            N1450            127.27   9.6      2150     1.46     0                        
1036             GAGE1            N1430            121.24   9.9      750      0.89     0                        
1037             GAGE1            N1430            56.86    24.9     500      1        0                        
1038             GAGE1            N1430            34       23.8     200      1.4      0                        
1039             GAGE1            N1420            326.66   32.9     1200     0.2      0                        
1041             GAGE1            N1420            216.87   31.5     950      0.2      0                        
1043             GAGE1            N1420            117.71   32       600      0.2      0                        
1044             GAGE1            N1420            146.83   29       600      0.9      0                        
1045             GAGE1            N1420            184.06   21       1400     0.9      0                        
1046             GAGE1            N1410            333.43   26.2     1500     0.9      0                        
1047             GAGE1            N1410            91.98    39.7     500      1        0                        
1048             GAGE1            N1410            52.8     35       250      1        0                        
1049             GAGE1            N1004            30.59    35       200      1        0                        
1050             GAGE1            N1004            6.26     60       100      1        0                        
1051             GAGE1            N1022            69.8     33.4     350      1.37     0                        
1052             GAGE1            N1022            81.83    23.7     700      1.37     0                        
1053             GAGE1            N1023            100.28   22.7     850      1        0                        
1054             GAGE1            N1023            35.16    30       250      0.9      0                        
1055             GAGE1            N1023            99.58    15       750      0.8      0                        
1056             GAGE1            N1029            75.9     34.7     400      0.7      0                        
1057             GAGE1            N1029            137.91   23.8     600      0.9      0                        
1058             GAGE1            N1028            31.96    65       200      0.7      0                        
1059             GAGE1            N1028            33.18    23.7     200      2.67     0                        
1060             GAGE1            N1030            63.42    18.4     500      1        0                        
1061             GAGE1            N1030            119.77   25.4     800      0.92     0                        
1062             GAGE1            N1030            92.29    20       750      0.9      0                        
2020             GAGE1            N2020            557.7    10       2500     0.2      0                        
2018             GAGE1            N2018            121.86   15       400      0.5      0                        
2016             GAGE1            N2016            735.41   5        3000     0.8      0                        
2014             GAGE1            N2014            347.43   5        1700     0.8      0                        
2012             GAGE1            N2100            1393.23  5        2000     0.8      0                        
2186             GAGE1            N2186            338.1    12       2000     0.7      0                        
2184             GAGE1            N2184            202.11   15.4     1000     0.7      0                        
2180             GAGE1            N2180            927.96   10       3200     0.5      0                        
2176             GAGE1            N2174            252.91   8        1500     0.9      0                        
2174             GAGE1            N2174            516.75   75       2500     0.9      0                        
2158             GAGE1            N2100            1348.51  5        3000     0.9      0                        
2154             GAGE1            N2154            857      6        3000     1.1      0                        
2150             GAGE1            N2150            481.19   12.7     2500     0.8      0                        
2146             GAGE1            N2146            2405.63  16.3     7000     0.65     0                        
2142             GAGE1            N2142            406.54   12.9     2000     0.6      0                        
2138             GAGE1            N2138            277.53   15.1     2000     0.8      0                        
2134             GAGE1            N2134            642.93   28.8     3500     0.65     0                        
2130             GAGE1            N2100            1426.54  5        4000     1.1      0                        
2100             GAGE1            N2100            4583.23  100      1909334  0.01     0                        
2228             GAGE1            N2228            605.61   5        3500     0.1      0                        
2224             GAGE1            N2224            1499.62  10       3000     1.1      0                        
2220             GAGE1            N2220            311.31   25       2000     0.8      0                        
2232             GAGE1            N2340            232.03   25       1500     0.9      0                        
2236             GAGE1            N2338            546.87   10       3000     0.9      0                        
2240             GAGE1            N2340            48.03    83.4     200      0.9      0                        
2244             GAGE1            N2338            331.9    25       2500     1.1      0                        
2252             GAGE1            N2338            207.48   27.5     1500     0.9      0                        
2256             GAGE1            N2320            142.38   29.9     800      0.9      0                        
2260             GAGE1            N2320            76.27    31.9     500      0.9      0                        
2264             GAGE1            N2305            71.24    48.6     500      0.9      0                        

[SUBAREAS]
;;Subcatchment   N-Imperv   N-Perv     S-Imperv   S-Perv     PctZero    RouteTo    PctRouted 
;;-------------- ---------- ---------- ---------- ---------- ---------- ---------- ----------
4698             0.037      0.251      0.2        2.85       0          OUTLET    
4696             0.034      0.246      0.2        2.17       0          OUTLET    
4694             0.031      0.256      0.2        1.86       0          OUTLET    
4692             0.031      0.243      0.2        2.62       0          OUTLET    
4690             0.022      0.241      0.2        1.88       0          OUTLET    
4688             0.034      0.248      0.2        2.66       0          OUTLET    
4686             0.029      0.273      0.2        2.39       0          OUTLET    
4679             0.036      0.246      0.2        3.24       0          OUTLET    
4677             0.033      0.256      0.2        2.13       0          OUTLET    
4678             0.033      0.219      0.2        3.27       0          OUTLET    
4676             0.038      0.303      0.2        2.48       0          OUTLET    
4675             0.04       0.258      0.2        3          0          OUTLET    
4674             0.033      0.266      0.2        2.92       0          OUTLET    
4668             0.019      0.22       0.2        2.55       0          OUTLET    
4666             0.027      0.254      0.2        3.01       0          OUTLET    
4664             0.035      0.239      0.2        2.67       0          OUTLET    