[TITLE]
;;Project Title/Notes

[OPTIONS]
;;Option             Value
FLOW_UNITS           CFS
INFILTRATION         GREEN_AMPT
FLOW_ROUTING         DYNWAVE
LINK_OFFSETS         DEPTH
MIN_SLOPE            0
ALLOW_PONDING        YES
SKIP_STEADY_STATE    NO

IGNORE_GROUNDWATER   YES
START_DATE           01/01/2002
START_TIME           00:00:00
REPORT_START_DATE    01/01/2002
REPORT_START_TIME    00:00:00
END_DATE             01/02/2002
END_TIME             00:00:00
SWEEP_START          01/01
SWEEP_END            01/01
DRY_DAYS             5.000000
REPORT_STEP          00:01:00
WET_STEP             00:01:00
DRY_STEP             00:01:00
ROUTING_STEP         0:00:30 
RULE_STEP            00:00:00

INERTIAL_DAMPING     NONE
NORMAL_FLOW_LIMITED  SLOPE
FORCE_MAIN_EQUATION  H-W
VARIABLE_STEP        0.75
LENGTHENING_STEP     10
MIN_SURFAREA         12.557
MAX_TRIALS           10
HEAD_TOLERANCE       0.001000
SYS_FLOW_TOL         5
LAT_FLOW_TOL         5
MINIMUM_STEP         0
THREADS              1

[EVAPORATION]
;;Data Source    Parameters
;;-------------- ----------------
MONTHLY          0.040000 0.070000 0.100000 0.150000 0.180000 0.200000 0.210000 0.200000 0.170000 0.110000 0.070000 0.040000
DRY_ONLY         YES

[RAINGAGES]
;;Name           Format    Interval SCF      Source    
;;-------------- --------- ------ ------ ----------
100YR_RAIN       CUMULATIVE 0.250000 1.000000 TIMESERIES 100-YEAR        
10YR_RAIN        CUMULATIVE 0.250000 1.000000 TIMESERIES 10-YEAR         
25YR_RAIN        CUMULATIVE 0.250000 1.000000 TIMESERIES 25-YEAR         
2YR_RAIN         CUMULATIVE 0.250000 1.000000 TIMESERIES 2-YEAR          
50YR_RAIN        CUMULATIVE 0.250000 1.000000 TIMESERIES 50-YEAR         
5YR_RAIN         CUMULATIVE 0.250000 1.000000 TIMESERIES 5-YEAR          
GAGE1            VOLUME    0.083000 1.000000 TIMESERIES JUL3-62015      

[SUBCATCHMENTS]
;;Name           Rain Gage        Outlet           Area     %Imperv  Width    %Slope   CurbLen  SnowPack        
;;-------------- ---------------- ---------------- -------- -------- -------- -------- -------- ----------------
1                10YR_RAIN        MA02014508S      26.164000 53.492000 1067.570000 2.740000 0.000000                 
10               10YR_RAIN        MA01015937S      18.517000 57.250000 898.110000 2.400000 0.000000                 
11               10YR_RAIN        MA01015903S      33.103000 48.803000 1200.820000 3.170000 0.000000                 
12               10YR_RAIN        STUCTURE-60      52.005000 49.413000 1505.100000 2.770000 0.000000                 
13               10YR_RAIN        MA01015103S      41.908000 15.031000 1351.120000 4.380000 0.000000                 
14               10YR_RAIN        MA02012506S      33.985000 32.126000 1216.710000 2.790000 0.000000                 
15               10YR_RAIN        MA020130X        35.729000 16.783000 1247.540000 3.860000 0.000000                 
16               10YR_RAIN        MA01012206S      36.668000 15.491000 1263.830000 2.990000 0.000000                 
17               10YR_RAIN        MA010121X        39.328000 16.931000 1308.870000 2.680000 0.000000                 
18               10YR_RAIN        MA02010806S      20.525000 30.179000 945.550000 2.400000 0.000000                 
19               10YR_RAIN        MA02011605S      37.720000 17.768000 1281.830000 1.400000 0.000000                 
2                10YR_RAIN        MA0301207S       26.776000 48.160000 1079.980000 2.960000 0.000000                 
20               10YR_RAIN        MA020126X        24.597000 19.321000 1035.110000 2.420000 0.000000                 
21               10YR_RAIN        MA02013205S      20.495000 15.111000 944.860000 3.400000 0.000000                 
22               10YR_RAIN        MA020138X        15.426000 11.186000 819.730000 3.470000 0.000000                 
23               10YR_RAIN        MA020140X        17.552000 22.364000 874.390000 2.700000 0.000000                 
24               10YR_RAIN        MA02014305S      15.046000 9.232000 809.570000 6.670000 0.000000                 
25               10YR_RAIN        MA020147X        7.633000 9.771000 576.620000 4.880000 0.000000                 
26               10YR_RAIN        MA030101X        13.250000 33.983000 759.720000 4.780000 0.000000                 
27               10YR_RAIN        MA02015407S      25.806000 31.762000 1060.240000 1.950000 0.000000                 
28               10YR_RAIN        MA02015417S      27.944000 28.106000 1103.290000 4.780000 0.000000                 
29               10YR_RAIN        MA01015734S      30.874000 66.230000 1159.690000 1.830000 0.000000                 
30               10YR_RAIN        MA01015746S      17.937000 60.050000 883.930000 3.500000 0.000000                 
31               10YR_RAIN        MA01015707S      13.256000 56.983000 759.890000 5.330000 0.000000                 
32               10YR_RAIN        MA01014405S      21.484000 32.040000 967.390000 2.730000 0.000000                 
33               10YR_RAIN        MA01015109S      40.827000 23.781000 1333.580000 2.250000 0.000000                 
34               10YR_RAIN        MA01015929S      22.189000 61.188000 983.130000 0.980000 0.000000                 
35               10YR_RAIN        MA01016001S      15.855000 54.478000 831.050000 2.520000 0.000000                 
36               10YR_RAIN        MA01014103S      23.748000 11.297000 1017.090000 4.160000 0.000000                 
37               10YR_RAIN        MA01015919S      17.329000 50.588000 868.820000 2.280000 0.000000                 
38               10YR_RAIN        MA01015911S      31.182000 29.739000 1165.460000 2.730000 0.000000                 
39               10YR_RAIN        MA01015940S      16.285000 56.162000 842.240000 2.480000 0.000000                 
4                10YR_RAIN        MA010112X        70.123000 20.535000 1747.730000 0.980000 0.000000                 
40               10YR_RAIN        MA01016052S      26.332000 53.846000 1070.990000 2.630000 0.000000                 
41               10YR_RAIN        MA01016043S      28.423000 49.237000 1112.700000 2.860000 0.000000                 
5                10YR_RAIN        MA020105X        22.206000 5.765000 983.510000 2.790000 0.000000                 
6                10YR_RAIN        MA020119X        39.356000 18.287000 1309.330000 2.140000 0.000000                 
7                10YR_RAIN        MA010135X        49.294000 17.054000 1465.350000 4.280000 0.000000                 
8                10YR_RAIN        MA01014006S      28.931000 23.242000 1122.600000 2.670000 0.000000                 
9                10YR_RAIN        MA01015723S      42.343000 59.136000 1358.110000 2.820000 0.000000                 

[SUBAREAS]
;;Subcatchment   N-Imperv   N-Perv     S-Imperv   S-Perv     PctZero    RouteTo    PctRouted 
;;-------------- ---------- ---------- ---------- ---------- ---------- ---------- ----------
1                0.013000   0.100000   0.052000   0.250000   25.000000  OUTLET    
10               0.013000   0.100000   0.049000   0.250000   25.000000  OUTLET    
11               0.013000   0.100000   0.056000   0.250000   25.000000  OUTLET    
12               0.013000   0.100000   0.052000   0.250000   25.000000  OUTLET    
13               0.013000   0.150000   0.065000   0.250000   25.000000  OUTLET    
14               0.013000   0.100000   0.052000   0.250000   25.000000  OUTLET    
15               0.013000   0.100000   0.061000   0.250000   25.000000  OUTLET    
16               0.013000   0.100000   0.054000   0.250000   25.000000  OUTLET    
17               0.013000   0.150000   0.051000   0.250000   25.000000  OUTLET    
18               0.013000   0.100000   0.049000   0.250000   25.000000  OUTLET    
19               0.013000   0.100000   0.037000   0.250000   25.000000  OUTLET    
2                0.013000   0.100000   0.054000   0.250000   25.000000  OUTLET    
20               0.013000   0.100000   0.049000   0.250000   25.000000  OUTLET    
21               0.013000   0.100000   0.058000   0.250000   25.000000  OUTLET    
22               0.013000   0.100000   0.058000   0.250000   25.000000  OUTLET    
23               0.013000   0.100000   0.052000   0.250000   25.000000  OUTLET    
24               0.013000   0.100000   0.080000   0.250000   25.000000  OUTLET    
25               0.013000   0.100000   0.069000   0.250000   25.000000  OUTLET    
26               0.013000   0.100000   0.068000   0.250000   25.000000  OUTLET    
27               0.013000   0.100000   0.044000   0.250000   25.000000  OUTLET    
28               0.013000   0.150000   0.068000   0.500000   25.000000  OUTLET    
29               0.013000   0.100000   0.043000   0.250000   25.000000  OUTLET    
30               0.013000   0.100000   0.059000   0.250000   25.000000  OUTLET    
31               0.013000   0.100000   0.072000   0.250000   25.000000  OUTLET    
32               0.013000   0.100000   0.052000   0.250000   25.000000  OUTLET    
33               0.013000   0.150000   0.047000   0.250000   25.000000  OUTLET    
34               0.013000   0.150000   0.031000   0.250000   25.000000  OUTLET    
35               0.013000   0.100000   0.050000   0.250000   25.000000  OUTLET    
36               0.013000   0.100000   0.064000   0.250000   25.000000  OUTLET    
37               0.013000   0.100000   0.048000   0.250000   25.000000  OUTLET    
38               0.013000   0.150000   0.052000   0.250000   25.000000  OUTLET    
39               0.013000   0.100000   0.049000   0.250000   25.000000  OUTLET    
4                0.013000   0.150000   0.031000   0.250000   25.000000  OUTLET    
40               0.013000   0.100000   0.051000   0.250000   25.000000  OUTLET    
41               0.013000   0.150000   0.053000   0.250000   25.000000  OUTLET    
5                0.013000   0.200000   0.052000   0.250000   25.000000  OUTLET    
6                0.013000   0.100000   0.046000   0.250000   25.000000  OUTLET    
7                0.013000   0.100000   0.065000   0.250000   25.000000  OUTLET    
8                0.013000   0.100000   0.051000   0.250000   25.000000  OUTLET    
9                0.013000   0.100000   0.053000   0.250000   25.000000  OUTLET    

[INFILTRATION]
;;Subcatchment   Param1     Param2     Param3     Param4     Param5    
;;-------------- ---------- ---------- ---------- ---------- ----------
1                9.071232   0.522894   0.277602   7          0         
10               9.071232   0.522894   0.277602   7          0         
11               9.071232   0.522894   0.277602   7          0         
12               9.071232   0.522894   0.277602   7          0         
13               9.071232   0.522894   0.277602   7          0         
14               9.071232   0.522894   0.277602   7          0         
15               9.071232   0.522894   0.277602   7          0         
16               9.071232   0.522894   0.277602   7          0         
17               9.071232   0.522894   0.277602   7          0         
18               9.071232   0.522894   0.277602   7          0         
19               9.071232   0.522894   0.277602   7          0         
2                9.071232   0.522894   0.277602   7          0         
20               9.071232   0.522894   0.277602   7          0         
21               9.071232   0.522894   0.277602   7          0         
22               9.071232   0.522894   0.277602   7          0         
23               9.071232   0.522894   0.277602   7          0         
24               9.071232   0.522894   0.277602   7          0         
25               9          0.5        0.25                            
26               9.071232   0.522894   0.277602   7          0         
27               9.071232   0.522894   0.277602   7          0         
28               9.071232   0.522894   0.277602   7          0         
29               9.071232   0.522894   0.277602   7          0         
30               9.071232   0.522894   0.277602   7          0         
31               9.071232   0.522894   0.277602   7          0         
32               9.071232   0.522894   0.277602   7          0         
33               9.071232   0.522894   0.277602   7          0         
34               9.071232   0.522894   0.277602   7          0         
35               9.071232   0.522894   0.277602   7          0         
36               9.071232   0.522894   0.277602   7          0         
37               9.071232   0.522894   0.277602   7          0         
38               9.071232   0.522894   0.277602   7          0         
39               9.071232   0.522894   0.277602   7          0         
4                9.071232   0.522894   0.277602   7          0         
40               9.071232   0.522894   0.277602   7          0         
41               9.071232   0.522894   0.277602   7          0         
5                9.071232   0.522894   0.277602   7          0         
6                9.071232   0.522894   0.277602   7          0         
7                9.071232   0.522894   0.277602   7          0         
8                9.071232   0.522894   0.277602   7          0         
9                9.071232   0.522894   0.277602   7          0         

[JUNCTIONS]
;;Name           Elevation  MaxDepth   InitDepth  SurDepth   Aponded   
;;-------------- ---------- ---------- ---------- ---------- ----------
CONNECT          240.840000 2.870007   0.000000   0.000000   0.000000  
CONNECT13        270.140000 0.259994   0.000000   0.000000   0.000000  
CONNECT18        270.570129 0.579865   0.000000   0.000000   0.000000  
CONNECT19        267.596269 0.833724   0.000000   0.000000   0.000000  
CONNECT20        265.498943 1.121053   0.000000   0.000000   0.000000  
CONNECT21        262.509371 0.510618   0.000000   0.000000   0.000000  
CONNECT23        259.471792 8.978220   0.000000   0.000000   0.000000  
CONNECT24        259.024186 0.495803   0.000000   0.000000   0.000000  
CONNECT25        255.233096 0.216901   0.000000   0.000000   0.000000  
CONNECT27        252.398137 10.131861  0.000000   0.000000   0.000000  
CONNECT8         282.370000 0.959987   0.000000   0.000000   0.000000  
MA010110X        237.000000 0.610001   0.000000   0.000000   0.000000  
MA010111X        240.870000 0.590007   0.000000   0.000000   0.000000  
MA010112X        242.270000 1.580006   0.000000   0.000000   0.000000  
MA010113X        243.460000 0.319999   0.000000   0.000000   0.000000  
MA010114X        242.740000 1.010000   0.000000   0.000000   0.000000  
MA010115X        243.000000 2.979996   0.000000   0.000000   0.000000  
MA010116X        244.700000 4.800000   0.000000   0.000000   0.000000  
MA010117X        245.000000 7.710007   0.000000   0.000000   0.000000  
MA010118X        245.500000 4.500000   0.000000   0.000000   0.000000  
MA010119X        248.000000 2.130005   0.000000   0.000000   0.000000  
MA010120X        250.300000 0.869998   0.000000   0.000000   0.000000  
MA010121X        251.900000 6.659998   0.000000   0.000000   0.000000  
MA01012203S      255.160000 6.429996   0.000000   0.000000   0.000000  
; Concentric Structure 48 dia 24 frame 24 cone 6 wall 6 floor
MA01012204S      260.780000 3.820006   0.000000   0.000000   0.000000  
; Concentric Structure 48 dia 24 frame 24 cone 6 wall 6 floor
MA01012205S      263.940000 4.169985   0.000000   0.000000   0.000000  
; Concentric Structure 48 dia 24 frame 24 cone 6 wall 6 floor
MA01012206S      267.640000 5.000015   0.000000   0.000000   0.000000  
MA010122X        252.580000 5.740007   0.000000   0.000000   0.000000  
MA010123X        252.920000 0.150007   0.000000   0.000000   0.000000  
MA010124X        253.490000 0.239996   0.000000   0.000000   0.000000  
MA010125X        253.630000 0.250005   0.000000   0.000000   0.000000  
MA010126X        254.150000 0.480005   0.000000   0.000000   0.000000  
MA010127X        254.840000 0.290005   0.000000   0.000000   0.000000  
MA010128X        255.060000 0.229993   0.000000   0.000000   0.000000  
MA010129X        255.320000 0.750007   0.000000   0.000000   0.000000  
MA010130X        255.310000 0.290006   0.000000   0.000000   0.000000  
MA010131X        255.150000 2.379999   0.000000   0.000000   0.000000  
MA010132X        255.270000 0.679997   0.000000   0.000000   0.000000  
MA010133X        255.700000 0.990002   0.000000   0.000000   0.000000  
MA010134X        257.020000 0.379994   0.000000   0.000000   0.000000  
MA010135X        258.340000 0.450009   0.000000   0.000000   0.000000  
MA010136X        259.180000 1.960015   0.000000   0.000000   0.000000  
MA010137X        259.770000 1.279988   0.000000   0.000000   0.000000  
MA010138X        260.490000 1.400015   0.000000   0.000000   0.000000  
MA010139X        260.720000 0.399995   0.000000   0.000000   0.000000  
; 48 x 36 Rect Structure 48 x 24 Frm
MA01014002S      266.360000 7.999985   0.000000   0.000000   0.000000  
; Concentric Structure 48 dia 24 frame 24 cone 6 wall 6 floor
MA01014003S      268.470000 13.359987  0.000000   0.000000   0.000000  
; 48 x 36 Rect Structure 48 x 24 Frm
MA01014004S      270.480000 5.349987   0.000000   0.000000   0.000000  
; Concentric Structure 48 dia 24 frame 24 cone 6 wall 6 floor
MA01014005S      271.200000 4.919995   0.000000   0.000000   0.000000  
; Concentric Structure 48 dia 24 frame 24 cone 6 wall 6 floor
MA01014006S      273.490000 4.029989   0.000000   0.000000   0.000000  
; 48 x 36 Rect Structure 48 x 24 Frm
MA01014007S      279.180000 4.540001   0.000000   0.000000   0.000000  
MA010140X        261.750000 0.510010   0.000000   0.000000   0.000000  
MA01014101S      263.770000 0.159993   0.000000   0.000000   0.000000  
; 48 x 36 Rect Structure 48 x 24 Frm
MA01014102S      265.320000 4.169990   0.000000   0.000000   0.000000  
; Concentric Structure 48 dia 24 frame 24 cone 6 wall 6 floor
MA01014103S      265.760000 4.819987   0.000000   0.000000   0.000000  
; Concentric Structure 48 dia 24 frame 24 cone 6 wall 6 floor
MA01014104S      268.040000 5.319985   0.000000   0.000000   0.000000  
MA010141X        262.690000 0.739993   0.000000   0.000000   0.000000  
MA010142X        263.760000 0.400004   0.000000   0.000000   0.000000  
MA010143X        264.710000 1.529990   0.000000   0.000000   0.000000  
MA01014401S      268.320000 0.500000   0.000000   0.000000   0.000000  
; 48 x 36 Rect Structure 48 x 24 Frm
MA01014402S      270.850000 5.870001   0.000000   0.000000   0.000000  
; Concentric Structure 48 dia 24 frame 24 cone 6 wall 6 floor
MA01014403S      271.930000 5.379998   0.000000   0.000000   0.000000  
; Concentric Structure 48 dia 24 frame 24 cone 6 wall 6 floor
MA01014404S      272.970000 4.880006   0.000000   0.000000   0.000000  
; Concentric Structure 48 dia 24 frame 24 cone 6 wall 6 floor
MA01014405S      274.240000 4.420004   0.000000   0.000000   0.000000  
; Concentric Structure 48 dia 24 frame 24 cone 6 wall 6 floor
MA01014406S      282.390000 4.689987   0.000000   0.000000   0.000000  
; Concentric Structure 48 dia 24 frame 24 cone 6 wall 6 floor
MA01014407S      288.460000 6.930015   0.000000   0.000000   0.000000  
MA010144X        265.730000 0.720012   0.000000   0.000000   0.000000  
MA010145X        266.250000 0.440002   0.000000   0.000000   0.000000  
MA010146X        266.300000 0.490009   0.000000   0.000000   0.000000  
MA010147X        266.560000 0.570005   0.000000   0.000000   0.000000  
MA010148X        266.720000 1.420015   0.000000   0.000000   0.000000  
MA010149X        267.140000 0.500015   0.000000   0.000000   0.000000  
MA010150X        267.430000 0.480004   0.000000   0.000000   0.000000  
MA01015101S      269.350000 5.290015   0.000000   0.000000   0.000000  
; Concentric Structure 48 dia 24 frame 24 cone 6 wall 6 floor
MA01015102S      270.340000 7.130001   0.000000   0.000000   0.000000  
; Concentric Structure 48 dia 24 frame 24 cone 6 wall 6 floor
MA01015103S      273.150000 5.450006   0.000000   0.000000   0.000000  
; 48 x 36 Rect Structure 48 x 24 Frm
MA01015104S      275.990000 6.349996   0.000000   0.000000   0.000000  
; Concentric Structure 48 dia 24 frame 24 cone 6 wall 6 floor
MA01015105S      279.920000 5.990004   0.000000   0.000000   0.000000  
; Concentric Structure 48 dia 24 frame 24 cone 6 wall 6 floor
MA01015106S      286.430000 6.510002   0.000000   0.000000   0.000000  
; Concentric Structure 48 dia 24 frame 24 cone 6 wall 6 floor
MA01015107S      294.420000 5.889998   0.000000   0.000000   0.000000  
; Concentric Structure 48 dia 24 frame 24 cone 6 wall 6 floor
MA01015108S      295.170000 5.359999   0.000000   0.000000   0.000000  
; Concentric Structure 48 dia 24 frame 24 cone 6 wall 6 floor
MA01015109S      296.430000 6.360009   0.000000   0.000000   0.000000  
; Concentric Structure 48 dia 24 frame 24 cone 6 wall 6 floor
MA01015110S      297.950000 4.310010   0.000000   0.000000   0.000000  
MA010151X        267.720000 0.429994   0.000000   0.000000   0.000000  
MA010152X        268.040000 0.549996   0.000000   0.000000   0.000000  
MA010153X        268.680000 0.649987   0.000000   0.000000   0.000000  
; 48 x 24 Rect Structure 48 x 24 Frm
MA0101543S       290.960000 8.719993   0.000000   0.000000   0.000000  
MA010154X        269.280000 1.200011   0.000000   0.000000   0.000000  
MA010155X        269.610000 2.729996   0.000000   0.000000   0.000000  
MA010156X        270.440000 0.760012   0.000000   0.000000   0.000000  
; 48 x 36 Rect Structure 48 x 24 Frm
MA01015702S      273.470000 10.459993  0.000000   0.000000   0.000000  
; Concentric Structure 48 dia 24 frame 24 cone 6 wall 6 floor
MA01015703S      274.250000 9.660004   0.000000   0.000000   0.000000  
; Concentric Structure 48 dia 24 frame 24 cone 6 wall 6 floor
MA01015704S      276.500000 8.100006   0.000000   0.000000   0.000000  
; Concentric Structure 48 dia 24 frame 24 cone 6 wall 6 floor
MA01015705S      278.830000 6.939989   0.000000   0.000000   0.000000  
; Concentric Structure 48 dia 24 frame 24 cone 6 wall 6 floor
MA01015706S      279.790000 7.150002   0.000000   0.000000   0.000000  
; 48 x 36 Rect Structure 48 x 24 Frm
MA01015707S      282.540000 7.739999   0.000000   0.000000   0.000000  
; Concentric Structure 48 dia 24 frame 24 cone 6 wall 6 floor
MA01015708S      282.930000 8.379998   0.000000   0.000000   0.000000  
; 48 x 36 Rect Structure 48 x 24 Frm
MA01015709S      283.480000 6.930004   0.000000   0.000000   0.000000  
; Concentric Structure 48 dia 24 frame 24 cone 6 wall 6 floor
MA01015710S      284.020000 5.430012   0.000000   0.000000   0.000000  
; Concentric Structure 48 dia 24 frame 24 cone 6 wall 6 floor
MA01015711S      284.560000 11.179990  0.000000   0.000000   0.000000  
; Concentric Structure 48 dia 24 frame 24 cone 6 wall 6 floor
MA01015712S      285.060000 11.559995  0.000000   0.000000   0.000000  
; Concentric Structure 48 dia 24 frame 24 cone 6 wall 6 floor
MA01015713S      287.180000 15.980004  0.000000   0.000000   0.000000  
; Concentric Structure 48 dia 24 frame 24 cone 6 wall 6 floor
MA01015714S      288.720000 6.019990   0.000000   0.000000   0.000000  
; 48 x 24 Rect Structure 48 x 24 Frm
MA01015715S      288.830000 6.360002   0.000000   0.000000   0.000000  
; 48 x 36 Rect Structure 48 x 24 Frm
MA01015716S      288.990000 6.210012   0.000000   0.000000   0.000000  
; 48 x 24 Rect Structure 48 x 24 Frm
MA01015717S      291.230000 6.150005   0.000000   0.000000   0.000000  
; 48 x 24 Rect Structure 48 x 24 Frm
MA01015718S      291.420000 5.759993   0.000000   0.000000   0.000000  
; Concentric Structure 48 dia 24 frame 24 cone 6 wall 6 floor
MA01015719S      291.870000 6.899989   0.000000   0.000000   0.000000  
; 48 x 24 Rect Structure 48 x 24 Frm
MA01015720S      292.340000 6.839993   0.000000   0.000000   0.000000  
; 48 x 24 Rect Structure 48 x 24 Frm
MA01015721S      292.660000 7.290012   0.000000   0.000000   0.000000  
; Concentric Structure 48 dia 24 frame 24 cone 6 wall 6 floor
MA01015722S      293.530000 6.339995   0.000000   0.000000   0.000000  
; 24 x 24 Rect Structure 24 x 24 Frm
MA01015723S      294.440000 8.169985   0.000000   0.000000   0.000000  
; 48 x 36 Rect Structure 48 x 24 Frm
MA01015724S      295.480000 7.449993   0.000000   0.000000   0.000000  
; 24 x 24 Rect Structure 24 x 24 Frm
MA01015725S      296.770000 6.249989   0.000000   0.000000   0.000000  
; 48 x 36 Rect Structure 48 x 24 Frm
MA01015726S      298.700000 4.849988   0.000000   0.000000   0.000000  
; 48 x 24 Rect Structure 48 x 24 Frm
MA01015727S      298.850000 4.669989   0.000000   0.000000   0.000000  
; 48 x 24 Rect Structure 48 x 24 Frm
MA01015728S      300.040000 7.710000   0.000000   0.000000   0.000000  
; Concentric Structure 48 dia 24 frame 24 cone 6 wall 6 floor
MA01015729S      300.750000 10.970001  0.000000   0.000000   0.000000  
MA01015730S      301.870000 9.279994   0.000000   0.000000   0.000000  
; 48 x 24 Rect Structure 48 x 24 Frm
MA01015731S      302.930000 7.129998   0.000000   0.000000   0.000000  
; 48 x 36 Rect Structure 48 x 24 Frm
MA01015732S      303.110000 6.719987   0.000000   0.000000   0.000000  
; Concentric Structure 48 dia 24 frame 24 cone 6 wall 6 floor
MA01015733S      308.310000 7.230009   0.000000   0.000000   0.000000  
; Concentric Structure 48 dia 24 frame 24 cone 6 wall 6 floor
MA01015734S      309.000000 9.619995   0.000000   0.000000   0.000000  
; Concentric Structure 48 dia 24 frame 24 cone 6 wall 6 floor
MA01015735S      312.510000 6.509989   0.000000   0.000000   0.000000  
; Concentric Structure 48 dia 24 frame 24 cone 6 wall 6 floor
MA01015739S      283.180000 5.309990   0.000000   0.000000   0.000000  
; Concentric Structure 48 dia 24 frame 24 cone 6 wall 6 floor
MA01015740S      283.670000 4.909987   0.000000   0.000000   0.000000  
; 48 x 36 Rect Structure 48 x 24 Frm
MA01015741S      283.560000 4.850004   0.000000   0.000000   0.000000  
; Concentric Structure 48 dia 24 frame 24 cone 6 wall 6 floor
MA01015742S      283.530000 8.019988   0.000000   0.000000   0.000000  
; Concentric Structure 48 dia 24 frame 24 cone 6 wall 6 floor
MA01015743S      286.340000 6.980007   0.000000   0.000000   0.000000  
; Concentric Structure 48 dia 24 frame 24 cone 6 wall 6 floor
MA01015744S      288.160000 5.139988   0.000000   0.000000   0.000000  
; Concentric Structure 48 dia 24 frame 24 cone 6 wall 6 floor
MA01015745S      289.060000 3.980009   0.000000   0.000000   0.000000  
; Concentric Structure 48 dia 24 frame 24 cone 6 wall 6 floor
MA01015746S      295.340000 9.619991   0.000000   0.000000   0.000000  
; Concentric Structure 48 dia 24 frame 24 cone 6 wall 6 floor
MA01015747S      299.470000 4.320009   0.000000   0.000000   0.000000  
MA010157X        270.740000 0.809988   0.000000   0.000000   0.000000  
MA010158X        271.600000 5.639990   0.000000   0.000000   0.000000  
; Concentric Structure 48 dia 24 frame 24 cone 6 wall 6 floor
MA01015901S      277.000000 12.429993  0.000000   0.000000   0.000000  
; Concentric Structure 48 dia 24 frame 24 cone 6 wall 6 floor
MA01015902S      279.470000 11.369996  0.000000   0.000000   0.000000  
; Concentric Structure 48 dia 24 frame 24 cone 6 wall 6 floor
MA01015903S      282.640000 9.699996   0.000000   0.000000   0.000000  
; Concentric Structure 48 dia 24 frame 24 cone 6 wall 6 floor
MA01015904S      284.300000 9.300006   0.000000   0.000000   0.000000  
; Concentric Structure 48 dia 24 frame 24 cone 6 wall 6 floor
MA01015905S      286.710000 8.849998   0.000000   0.000000   0.000000  
; Concentric Structure 48 dia 24 frame 24 cone 6 wall 6 floor
MA01015906S      288.070000 9.280006   0.000000   0.000000   0.000000  
; Concentric Structure 48 dia 24 frame 24 cone 6 wall 6 floor
MA01015907S      292.240000 9.749990   0.000000   0.000000   0.000000  
; 96 x 36 Rect Structure 48 x 24 Frm
MA01015908S      292.860000 9.020005   0.000000   0.000000   0.000000  
; Concentric Structure 48 dia 24 frame 24 cone 6 wall 6 floor
MA01015909S      293.060000 7.580015   0.000000   0.000000   0.000000  
; Concentric Structure 48 dia 24 frame 24 cone 6 wall 6 floor
MA01015910S      297.940000 4.709994   0.000000   0.000000   0.000000  
; Concentric Structure 48 dia 24 frame 24 cone 6 wall 6 floor
MA01015911S      300.020000 5.539998   0.000000   0.000000   0.000000  
; Concentric Structure 48 dia 24 frame 24 cone 6 wall 6 floor
MA01015912S      303.400000 5.409998   0.000000   0.000000   0.000000  
; 48 x 24 Rect Structure 48 x 24 Frm
MA01015913S      301.600000 6.579993   0.000000   0.000000   0.000000  
; 48 x 24 Rect Structure 48 x 24 Frm
MA01015915S      305.770000 3.819996   0.000000   0.000000   0.000000  
; Concentric Structure 48 dia 24 frame 24 cone 6 wall 6 floor
MA01015916S      305.940000 5.609988   0.000000   0.000000   0.000000  
; Concentric Structure 48 dia 24 frame 24 cone 6 wall 6 floor
MA01015917       306.930000 4.839989   0.000000   0.000000   0.000000  
MA01015918S      306.180000 4.950005   0.000000   0.000000   0.000000  
; Concentric Structure 48 dia 24 frame 24 cone 6 wall 6 floor
MA01015919S      309.980000 6.919994   0.000000   0.000000   0.000000  
; 48 x 36 Rect Structure 48 x 24 Frm
MA01015920S      313.590000 9.279995   0.000000   0.000000   0.000000  
; Concentric Structure 48 dia 24 frame 24 cone 6 wall 6 floor
MA01015924S      289.270000 5.839985   0.000000   0.000000   0.000000  
; Concentric Structure 48 dia 24 frame 24 cone 6 wall 6 floor
MA01015925S      291.610000 7.349991   0.000000   0.000000   0.000000  
MA01015926S      295.680000 4.640007   0.000000   0.000000   0.000000  
MA01015927S      296.230000 5.150005   0.000000   0.000000   0.000000  
; Concentric Structure 48 dia 24 frame 24 cone 6 wall 6 floor
MA01015928S      296.390000 8.330001   0.000000   0.000000   0.000000  
; Concentric Structure 48 dia 24 frame 24 cone 6 wall 6 floor