[TITLE]
;;Project Title/Notes
Scenario Run :  BASE

[OPTIONS]
;;Option             Value
FLOW_UNITS           GPM
INFILTRATION         HORTON
FLOW_ROUTING         DYNWAVE
LINK_OFFSETS         DEPTH
MIN_SLOPE            0
ALLOW_PONDING        NO
SKIP_STEADY_STATE    NO

START_DATE           01/01/2002
START_TIME           00:00:00
REPORT_START_DATE    01/01/2002
REPORT_START_TIME    00:00:00
END_DATE             01/02/2002
END_TIME             06:00:00
SWEEP_START          01/01
SWEEP_END            12/31
DRY_DAYS             5.000000
REPORT_STEP          00:01:00
WET_STEP             00:05:00
DRY_STEP             01:00:00
ROUTING_STEP         0:00:01 
RULE_STEP            00:00:00

INERTIAL_DAMPING     NONE
NORMAL_FLOW_LIMITED  BOTH
FORCE_MAIN_EQUATION  H-W
VARIABLE_STEP        0.75
LENGTHENING_STEP     1
MIN_SURFAREA         12.566
MAX_TRIALS           8
HEAD_TOLERANCE       0.000100
SYS_FLOW_TOL         5
LAT_FLOW_TOL         5
MINIMUM_STEP         0
THREADS              1

[FILES]
;;Interfacing Files
USE HOTSTART "hotStart.HSF"

[EVAPORATION]
;;Data Source    Parameters
;;-------------- ----------------
CONSTANT         0.000000
DRY_ONLY         NO

[JUNCTIONS]
;;Name           Elevation  MaxDepth   InitDepth  SurDepth   Aponded   
;;-------------- ---------- ---------- ---------- ---------- ----------
EAC_SMH30100001  -8.330000  12.270000  8.000000   3.940000   0.000000  
EAC_SMH30100002  -6.110000  10.320000  8.000000   4.210000   0.000000  
EAC_SMH30100003  -5.300000  10.600000  8.000000   5.300000   0.000000  
EAC_SMH30100004  -4.310000  8.660000   8.000000   4.350000   0.000000  
EAC_SMH30100005  -3.970000  10.120000  8.000000   6.150000   0.000000  
; Invert calculated
EAC_SMH30100006  -2.340000  8.000000   8.000000   0.000000   0.000000  
EAC_SMH30100011  -7.530000  11.970000  8.000000   4.440000   0.000000  
EAC_SMH30100012  -6.670000  10.860000  8.000000   4.190000   0.000000  
EAC_SMH30100013  -5.610000  10.230000  8.000000   4.620000   0.000000  
EAC_SMH30100014  -5.360000  9.900000   8.000000   4.540000   0.000000  
; Invert calculated
EAC_SMH30100015  -4.580000  8.000000   8.000000   0.000000   0.000000  
; Invert calculated
EAC_SMH30100016  -3.720000  8.000000   8.000000   0.000000   0.000000  
; Invert calculated
EAC_SMH30100019  -2.700000  8.000000   8.000000   0.000000   0.000000  
; New Junction
JCT-10           0.000000   8.000000   8.000000   1000.000000 0.000000  
JCT-310          0.000000   8.000000   8.000000   1000.000000 0.000000  
JCT-310-1        0.000000   8.000000   8.000000   1000.000000 0.000000  
JCT-310-2        0.000000   8.000000   8.000000   1000.000000 0.000000  
; New Junction
JCT-312          0.750000   8.000000   8.000000   1000.000000 0.000000  
JCT-31A          0.000000   8.000000   8.000000   1000.000000 0.000000  
JCT-31A1         0.000000   8.000000   8.000000   1000.000000 0.000000  
JCT-31A1V        0.000000   8.000000   8.000000   1000.000000 0.000000  
JCT-31A2         0.000000   8.000000   8.000000   1000.000000 0.000000  
JCT-31A2V        0.000000   8.000000   8.000000   1000.000000 0.000000  
JCT-31A3         0.000000   8.000000   8.000000   1000.000000 0.000000  
JCT-31A3V        0.000000   8.000000   8.000000   1000.000000 0.000000  
JCT-31A4         0.000000   8.000000   8.000000   1000.000000 0.000000  
JCT-31A4V        0.000000   8.000000   8.000000   1000.000000 0.000000  
JCT-31A5         0.000000   8.000000   8.000000   1000.000000 0.000000  
JCT-31A5V        0.000000   8.000000   8.000000   1000.000000 0.000000  
JCT-31AV         0.000000   8.000000   8.000000   1000.000000 0.000000  
JCT-31F1         0.000000   8.000000   8.000000   1000.000000 0.000000  
JCT-31F2         0.000000   8.000000   8.000000   1000.000000 0.000000  
JCT-31F21        0.000000   8.000000   8.000000   1000.000000 0.000000  
JCT-31F21V       0.000000   8.000000   8.000000   1000.000000 0.000000  
JCT-31F22        0.000000   8.000000   8.000000   1000.000000 0.000000  
JCT-31F22V       0.000000   8.000000   8.000000   1000.000000 0.000000  
JCT-31F2V        0.000000   8.000000   8.000000   1000.000000 0.000000  
SFT30100200      -1.068031  8.000000   8.000000   1000.000000 0.000000  
SFT30100300      -0.585934  8.000000   8.000000   1000.000000 0.000000  
SFT30100400      -0.571841  8.000000   8.000000   1000.000000 0.000000  
SFT30100600      0.000000   8.000000   8.000000   1000.000000 0.000000  
SFT30100700      -0.020767  8.000000   8.000000   1000.000000 0.000000  
SFT30100800      0.000000   8.000000   8.000000   1000.000000 0.000000  
SFT30101000      -0.017412  8.000000   8.000000   1000.000000 0.000000  
SFT30101300      0.000000   8.000000   8.000000   1000.000000 0.000000  
SFT30101500      0.000000   8.000000   8.000000   1000.000000 0.000000  
SFT30101600      0.000000   8.000000   8.000000   1000.000000 0.000000  
SFT30101700      0.000000   8.000000   8.000000   1000.000000 0.000000  
SFT30101800      0.000000   8.000000   8.000000   1000.000000 0.000000  
SFT30101900      0.000000   8.000000   8.000000   1000.000000 0.000000  
SFT30102000      0.000000   8.000000   8.000000   1000.000000 0.000000  
SFT30102600      0.000000   8.000000   8.000000   1000.000000 0.000000  
SFT30102700      0.000000   8.000000   8.000000   1000.000000 0.000000  
SFT30102800      0.000000   8.000000   8.000000   1000.000000 0.000000  
SFT30102900      0.000000   8.000000   8.000000   1000.000000 0.000000  
SFT30103100      0.056192   8.000000   8.000000   1000.000000 0.000000  
SFT30104500      -1.198554  8.000000   8.000000   1000.000000 0.000000  
SFT30104600      -1.281279  8.000000   8.000000   1000.000000 0.000000  
SFT30104700      -1.507627  8.000000   8.000000   1000.000000 0.000000  
SFT30107200      -1.524861  8.000000   8.000000   1000.000000 0.000000  
SFT30109800      0.000000   8.000000   8.000000   1000.000000 0.000000  
SFT30122000      0.000000   8.000000   8.000000   1000.000000 0.000000  
SFT30123000      0.170465   8.000000   8.000000   1000.000000 0.000000  
SFT30123100      0.835892   8.000000   8.000000   1000.000000 0.000000  
SFT30123200      1.433545   8.000000   8.000000   1000.000000 0.000000  
; IE from record dwg: 0227-13-067 p. 3
SFT30191000      3.360000   8.000000   8.000000   1000.000000 0.000000  
SFT30191200      0.000000   8.000000   8.000000   1000.000000 0.000000  
SFT30191300      0.000000   8.000000   8.000000   1000.000000 0.000000  
SFT30191600      0.000000   8.000000   8.000000   1000.000000 0.000000  
SFT30191800      2.698680   8.000000   8.000000   1000.000000 0.000000  
SFT30192000      2.801369   8.000000   8.000000   1000.000000 0.000000  
SFT30192100      0.000000   8.000000   8.000000   1000.000000 0.000000  
SFT30192200      0.000000   8.000000   8.000000   1000.000000 0.000000  
SFT30192300      0.000000   8.000000   8.000000   1000.000000 0.000000  
SFT30192500      0.000000   8.000000   8.000000   1000.000000 0.000000  
SFT30192600      0.000000   8.000000   8.000000   1000.000000 0.000000  
SFT30192800      0.000000   8.000000   8.000000   1000.000000 0.000000  
SFT30193100      0.000000   8.000000   8.000000   1000.000000 0.000000  
SFT30193200      0.000000   8.000000   8.000000   1000.000000 0.000000  
SFT30193300      0.000000   8.000000   8.000000   1000.000000 0.000000  
SFT301E5001      0.000000   8.000000   8.000000   1000.000000 0.000000  
SFT301E5002      -1.178185  8.000000   8.000000   1000.000000 0.000000  
SFT301E5003      -1.758376  8.000000   8.000000   1000.000000 0.000000  
SFT301E5004      0.000000   8.000000   8.000000   1000.000000 0.000000  
SFT301E5005      0.000000   8.000000   8.000000   1000.000000 0.000000  
SFT301E5006      0.000000   8.000000   8.000000   1000.000000 0.000000  
SFT301E5007      0.000000   8.000000   8.000000   1000.000000 0.000000  
SFT301E5008      0.000000   8.000000   8.000000   1000.000000 0.000000  
SFT301E5009      0.000000   8.000000   8.000000   1000.000000 0.000000  
SFT301E5010      0.000000   8.000000   8.000000   1000.000000 0.000000  
SFT301E5011      0.000000   8.000000   8.000000   1000.000000 0.000000  
SFT301E5012      0.000000   8.000000   8.000000   1000.000000 0.000000  
SFT301E5013      0.000000   8.000000   8.000000   1000.000000 0.000000  
SFT301E5014      0.000000   8.000000   8.000000   1000.000000 0.000000  
SFT301E5015      0.000000   8.000000   8.000000   1000.000000 0.000000  
SFT301E5016      0.000000   8.000000   8.000000   1000.000000 0.000000  
SFT301E5017      0.000000   8.000000   8.000000   1000.000000 0.000000  
SFT301E5018      0.000000   8.000000   8.000000   1000.000000 0.000000  
SFT301E5019      0.000000   8.000000   8.000000   1000.000000 0.000000  
SFT301E5020      -1.323217  8.000000   8.000000   1000.000000 0.000000  
SFT301E5021      0.000000   8.000000   8.000000   1000.000000 0.000000  
SFT37006500      -0.069691  8.000000   8.000000   1000.000000 0.000000  
SFT37006600      -0.223831  8.000000   8.000000   1000.000000 0.000000  
SFT37006700      -0.550968  8.000000   8.000000   1000.000000 0.000000  
SFT37006800      -0.878105  8.000000   8.000000   1000.000000 0.000000  
SFT37006900      -1.013387  8.000000   8.000000   1000.000000 0.000000  
SFT37007000      -1.147030  8.000000   8.000000   1000.000000 0.000000  
SFT37007100      -1.839679  8.000000   8.000000   1000.000000 0.000000  
SFT37007300      -12.811028 8.000000   8.000000   1000.000000 0.000000  
SFT37007400      -7.809931  8.000000   8.000000   1000.000000 0.000000  
SFT37007500      -0.942056  8.000000   8.000000   1000.000000 0.000000  
SFT37007600      -13.557006 8.000000   8.000000   1000.000000 0.000000  
SMH30116140      -3.000000  8.330000   8.000000   5.330000   0.000000  
SMH30116150      -2.170000  8.000000   8.000000   5.710000   0.000000  
SMH30116170      -1.160000  8.030000   8.000000   6.870000   0.000000  
SMH30118160      -0.650000  8.000000   8.000000   5.290000   0.000000  
SMH30118300      -2.260000  9.160000   8.000000   6.900000   0.000000  
; Invert calculated
SMH30118350      -1.250200  8.000000   8.000000   0.000000   0.000000  
; Invert calculated
SMH30118360      -0.247000  8.000000   8.000000   0.000000   0.000000  
; Invert calculated
SMH30118370      0.153000   8.000000   8.000000   0.000000   0.000000  
; Invert calculated
SMH30118380      1.405000   8.000000   8.000000   0.000000   0.000000  
; Invert calculated
SMH30118390      0.053000   8.000000   8.000000   0.000000   0.000000  
; Invert calculated
SMH30118400      1.001000   8.000000   8.000000   0.000000   0.000000  
SMH30190400      -1.580000  8.570000   8.000000   6.990000   0.000000  
SMH30190600      -1.900000  8.760000   8.000000   6.860000   0.000000  
SMH30190700      -3.100000  12.780000  8.000000   9.680000   0.000000  
SMH30190800      -4.170000  11.330000  8.000000   7.160000   0.000000  
; Invert calculated
SMH301E0007      -1.220000  8.000000   8.000000   0.000000   0.000000  
; Invert calculated
SMH301E0020      -1.900000  8.000000   8.000000   0.000000   0.000000  
SMH37001700      -2.460000  9.390000   8.000000   6.930000   0.000000  
SMH37001800      -2.710000  10.030000  8.000000   7.320000   0.000000  
SMH37001900      -2.760000  9.830000   8.000000   7.070000   0.000000  
SMH37002000      -3.170000  9.820000   8.000000   6.650000   0.000000  

[OUTFALLS]
;;Name           Elevation  Type       Stage Data       Gated    Route To        
;;-------------- ---------- ---------- ---------------- -------- ----------------
OFALL-310        0.000000   FIXED      8.000000         NO                       

[STORAGE]
;;Name           Elev.    MaxDepth   InitDepth  Shape      Curve Name/Params            N/A      Fevap    Psi      Ksat     IMD     
;;-------------- -------- ---------- ----------- ---------- ---------------------------- -------- --------          -------- --------
SLS3010031A      -9.400000 16.620000  5.000000   FUNCTIONAL 0.000000  0.000000  50.300000 0.000000 0.000000
SLS3010031G      -14.440000 20.420000  5.000000   FUNCTIONAL 0.000000  0.000000  78.500000 0.000000 0.000000
SLS301031A1      -9.830000 17.610000  5.000000   FUNCTIONAL 0.000000  0.000000  50.300000 0.000000 0.000000
SLS301031A2      -4.910000 11.800000  3.500000   FUNCTIONAL 0.000000  0.000000  28.300000 0.000000 0.000000
SLS301031A3      -16.360000 23.930000  5.500000   FUNCTIONAL 0.000000  0.000000  78.540000 0.000000 0.000000
SLS301031A4      -3.200000 12.450000  2.500000   FUNCTIONAL 0.000000  0.000000  28.300000 0.000000 0.000000
SLS301031A5      -3.030000 15.520000  4.000000   FUNCTIONAL 0.000000  0.000000  28.300000 0.000000 0.000000
SLS301031F1      -6.700000 12.250000  3.500000   FUNCTIONAL 0.000000  0.000000  28.300000 0.000000 0.000000
SLS301031F2      -8.940000 14.320000  3.000000   FUNCTIONAL 0.000000  0.000000  50.300000 0.000000 0.000000
SLS30131F21      -4.400000 9.570000   2.500000   FUNCTIONAL 0.000000  0.000000  28.300000 0.000000 0.000000
SLS30131F22      -13.800000 18.980000  4.000000   FUNCTIONAL 0.000000  0.000000  28.300000 0.000000 0.000000

[CONDUITS]
;;Name           From Node        To Node          Length     Roughness  InOffset   OutOffset  InitFlow   MaxFlow   
;;-------------- ---------------- ---------------- ---------- ---------- ---------- ---------- ---------- ----------
CDT-310          JCT-310-1        JCT-310          131.000000 0.010000   0.000000   0.000000   0.000000   0.000000  
CDT-310-1        JCT-310          OFALL-310        100.000000 0.010000   0.000000   0.000000   0.000000   0.000000  
; New Conduit
CDT-312          JCT-312          SMH30118380      2005.997646 0.010000   0.000000   0.000000   0.000000   0.000000  
CDT-31A1D        JCT-31A1         JCT-31A1V        100.000000 0.010000   0.000000   0.000000   0.000000   0.000000  
CDT-31A2D        JCT-31A2         JCT-31A2V        75.000000  0.010000   0.000000   0.000000   0.000000   0.000000  
; DIP
CDT-31A3D        JCT-31A3         JCT-31A3V        100.000000 0.010000   0.000000   0.000000   0.000000   0.000000  
; New Pipe
CDT-31A4D        JCT-31A4         JCT-31A4V        75.000000  0.010000   0.000000   0.000000   0.000000   0.000000  
CDT-31A5D        JCT-31A5         JCT-31A5V        75.000000  0.010000   0.000000   0.000000   0.000000   0.000000  
; New Conduit, D
CDT-31F1D        JCT-31F1         SFT37006500      85.000000  0.010000   0.000000   0.000000   0.000000   0.000000  
CDT-31F2         JCT-31F2         JCT-31F2V        75.000000  0.010000   0.000000   0.000000   0.000000   0.000000  
CDT-31F21D       JCT-31F21        JCT-31F21V       75.000000  0.010000   0.000000   0.000000   0.000000   0.000000  
CDT-31F22        JCT-31F22        JCT-31F22V       100.000000 0.010000   0.000000   0.000000   0.000000   0.000000  
CDT-331AD        JCT-31A          JCT-31AV         100.000000 0.010000   0.000000   0.000000   0.000000   0.000000  
; New Conduit
CDT-35           JCT-310-2        JCT-310-1        45.000000  0.010000   0.000000   0.000000   0.000000   0.000000  
EAC_SGP30100003  EAC_SMH30100003  EAC_SMH30100002  237.000000 0.010000   0.000000   0.000000   0.000000   0.000000  
EAC_SGP30100006  EAC_SMH30100006  EAC_SMH30100005  408.000000 0.010000   0.000000   0.000000   0.000000   0.000000  
EAC_SGP30100013  EAC_SMH30100013  EAC_SMH30100012  389.000000 0.010000   0.000000   0.000000   0.000000   0.000000  
EAC_SGP30100014  EAC_SMH30100014  EAC_SMH30100013  61.000000  0.010000   0.000000   0.000000   0.000000   0.000000  
EAC_SGP30100015  EAC_SMH30100015  EAC_SMH30100014  278.000000 0.010000   0.000000   0.000000   0.000000   0.000000  
EAC_SGP30100016  EAC_SMH30100016  EAC_SMH30100015  306.000000 0.010000   0.000000   0.000000   0.000000   0.000000  
; Dia revised from 12" to 10" per BCAD atlas
EAC_SGP30100019  EAC_SMH30100019  EAC_SMH30100016  364.000000 0.010000   0.000000   0.000000   0.000000   0.000000  
EAC_SPG30100001  EAC_SMH30100001  SLS3010031G      94.000000  0.010000   0.000000   5.900000   0.000000   0.000000  
EAC_SPG30100002  EAC_SMH30100002  EAC_SMH30100001  319.000000 0.010000   0.000000   0.000000   0.000000   0.000000  
EAC_SPG30100004  EAC_SMH30100004  EAC_SMH30100003  229.000000 0.010000   0.000000   0.000000   0.000000   0.000000  
EAC_SPG30100005  EAC_SMH30100005  EAC_SMH30100004  73.000000  0.010000   0.000000   0.000000   0.000000   0.000000  
EAC_SPG30100011  EAC_SMH30100011  EAC_SMH30100001  286.000000 0.010000   0.000000   0.000000   0.000000   0.000000  
EAC_SPG30100012  EAC_SMH30100012  EAC_SMH30100011  372.000000 0.010000   0.000000   0.000000   0.000000   0.000000  
SGP30116140      SMH30116140      SLS301031F2      43.000000  0.010000   0.000000   5.490000   0.000000   0.000000  
SGP30116150      SMH30116150      SMH30116140      241.000000 0.010000   0.000000   0.000000   0.000000   0.000000  
SGP30116170      SMH30116170      SMH30116150      300.239018 0.010000   0.000000   0.000000   0.000000   0.000000  
SGP30118160      SMH30118160      SMH30190400      210.000000 0.010000   0.000000   0.000000   0.000000   0.000000  
SGP30118300      SMH30118300      SMH37001700      62.000000  0.010000   0.000000   0.000000   0.000000   0.000000  
SGP30118350      SMH30118350      SMH30118300      306.000000 0.010000   0.000000   0.000000   0.000000   0.000000  
SGP30118360      SMH30118360      SMH30118350      304.000000 0.010000   0.000000   0.000000   0.000000   0.000000  
SGP30118370      SMH30118370      SMH30118360      100.000000 0.010000   0.000000   0.000000   0.000000   0.000000  
SGP30118380      SMH30118380      SMH30118370      313.000000 0.010000   0.000000   0.000000   0.000000   0.000000  
SGP30118390      SMH30118390      SMH30118360      75.000000  0.010000   0.000000   0.000000   0.000000   0.000000  
SGP30118400      SMH30118400      SMH30118390      237.000000 0.010000   0.000000   0.000000   0.000000   0.000000  
SGP30190400      SMH30190400      SMH30190600      42.000000  0.010000   0.000000   0.000000   0.000000   0.000000  
SGP30190600      SMH30190600      SMH30190700      302.000000 0.010000   0.000000   0.000000   0.000000   0.000000  
SGP30190700      SMH30190700      SMH30190800      250.000000 0.010000   0.000000   0.000000   0.000000   0.000000  
SGP30190800      SMH30190800      SLS301031A1      52.000000  0.010000   0.000000   5.440000   0.000000   0.000000  
SGP301E0007      SMH301E0007      EAC_SMH30100006  280.000000 0.010000   0.000000   0.000000   0.000000   0.000000  
; Dia revised from 12" to 10" per BCAD atlas
SGP301E0020      SMH301E0020      EAC_SMH30100019  285.000000 0.010000   0.000000   0.000000   0.000000   0.000000  
SGP37001700      SMH37001700      SMH37001800      41.000000  0.010000   0.000000   0.000000   0.000000   0.000000  
SGP37001800      SMH37001800      SMH37001900      43.000000  0.010000   0.000000   0.000000   0.000000   0.000000  
SGP37001900      SMH37001900      SMH37002000      45.000000  0.010000   0.000000   0.000000   0.000000   0.000000  
SGP37002000      SMH37002000      SLS3010031A      44.000000  0.010000   0.000000   6.230000   0.000000   0.000000  
; DIP
SPI30100200      SFT30100200      SMH30116170      124.000000 0.010000   0.000000   0.000000   0.000000   0.000000  
; DIP
SPI30100300      SFT30100300      SFT30100200      650.000000 0.010000   0.000000   0.000000   0.000000   0.000000  
; DIP
SPI3010031A      JCT-31AV         SFT30102900      92.000000  0.010000   0.000000   0.000000   0.000000   0.000000  
; DIP
SPI30100400      SFT30100400      SFT30100300      19.000000  0.010000   0.000000   0.000000   0.000000   0.000000  
; PVC
SPI30100600      SFT30100800      SFT30100600      26.000000  0.010000   0.000000   0.000000   0.000000   0.000000  
; DIP
SPI30100700      SFT30100700      SFT30100400      743.000000 0.010000   0.000000   0.000000   0.000000   0.000000  
; PVC
SPI30100800      SFT30100800      SFT30100700      17.000000  0.010000   0.000000   0.000000   0.000000   0.000000  
; DIP
SPI30101000      SFT30101000      SFT30104500      2056.000000 0.010000   0.000000   0.000000   0.000000   0.000000  
; DIP
SPI30101300      SFT30101300      SFT30101600      66.000000  0.010000   0.000000   0.000000   0.000000   0.000000  
; PVC
SPI30101500      SFT30101500      SFT30100800      922.000000 0.010000   0.000000   0.000000   0.000000   0.000000  
; PVC
SPI30101600      SFT30101600      SFT30101500      1161.000000 0.010000   0.000000   0.000000   0.000000   0.000000  
; DIP
SPI30101700      SFT30101700      SFT30101300      731.000000 0.010000   0.000000   0.000000   0.000000   0.000000  
; DIP
SPI30101800      SFT30101800      SFT30101700      18.000000  0.010000   0.000000   0.000000   0.000000   0.000000  
; DIP
SPI30101900      SFT30101900      SFT30101800      11.000000  0.010000   0.000000   0.000000   0.000000   0.000000  
; DIP
SPI30102000      SFT30102000      SFT30101900      50.000000  0.010000   0.000000   0.000000   0.000000   0.000000  
; DIP
SPI30102600      SFT30102600      SFT30192600      684.000000 0.010000   0.000000   0.000000   0.000000   0.000000  
; DIP
SPI30102700      SFT30102700      SFT30102800      28.000000  0.010000   0.000000   0.000000   0.000000   0.000000  
; DIP
SPI30102800      SFT30102800      SFT30102600      59.000000  0.010000   0.000000   0.000000   0.000000   0.000000  
; DIP
SPI30102900      SFT30102900      SFT30102800      20.000000  0.010000   0.000000   0.000000   0.000000   0.000000  
; DIP
SPI30103100      SFT30103100      SMH30118400      723.000000 0.010000   0.000000   0.000000   0.000000   0.000000  
; DIP
SPI301031A1      JCT-31A1V        SFT30191600      35.000000  0.010000   0.000000   0.000000   0.000000   0.000000  
; DIP
SPI301031A2      JCT-31A2V        SFT30103100      43.000000  0.010000   0.000000   0.000000   0.000000   0.000000  
; Splitted conduit
SPI301031A3      JCT-31A3V        SFT30123000      83.000000  0.010000   0.000000   0.000000   0.000000   0.000000  
; DIP
SPI301031A4      JCT-31A4V        SFT30122000      53.000000  0.010000   0.000000   0.000000   0.000000   0.000000  
; PVC
SPI301031A5      JCT-31A5V        SMH30118160      403.000000 0.010000   0.000000   0.000000   0.000000   0.000000  
; DIP
SPI301031F2      JCT-31F2V        SFT30101000      30.308774  0.010000   0.000000   0.000000   0.000000   0.000000  
; DIP
SPI30104500      SFT30104500      SFT30104600      144.000000 0.010000   0.000000   0.000000   0.000000   0.000000  
; DIP
SPI30104600      SFT30104600      SFT30104700      394.000000 0.010000   0.000000   0.000000   0.000000   0.000000  
; DIP
SPI30104700      SFT30104700      SFT30107200      30.000000  0.010000   0.000000   0.000000   0.000000   0.000000  
; DIP
SPI30109800      SFT30109800      SFT301E5004      48.000000  0.010000   0.000000   0.000000   0.000000   0.000000  
; DIP
SPI30122000      SFT30122000      JCT-312          672.696465 0.010000   0.000000   0.000000   0.000000   0.000000  
; DIP
SPI30123000      SFT30123000      SFT30123100      324.000000 0.010000   0.000000   0.000000   0.000000   0.000000  
; DIP
SPI30123100      SFT30123100      SFT30123200      291.000000 0.010000   0.000000   0.000000   0.000000   0.000000  
; DIP
SPI30123200      SFT30123200      SFT30191800      616.000000 0.010000   0.000000   0.000000   0.000000   0.000000  
; PVC
SPI30131F21      JCT-31F21V       SFT30100700      28.000000  0.010000   0.000000   0.000000   0.000000   0.000000  
; DIP
SPI30131F22      JCT-31F22V       SFT30102000      20.000000  0.010000   0.000000   0.000000   0.000000   0.000000  
SPI30191000      SFT30191000      SLS301031A1      12.000000  0.010000   0.000000   2.000000   0.000000   0.000000  
; DIP
SPI30191200      SFT30191200      SFT30191300      143.000000 0.010000   0.000000   0.000000   0.000000   0.000000  
; PVC
SPI30191300      SFT30191300      SFT30192100      18.000000  0.010000   0.000000   0.000000   0.000000   0.000000  
; DIP
SPI30191600      SFT30191600      SFT30191200      65.000000  0.010000   0.000000   0.000000   0.000000   0.000000  
; DIP
SPI30191800      SFT30191800      SFT30192000      50.000000  0.010000   0.000000   0.000000   0.000000   0.000000  
; DIP
SPI30192000      SFT30192000      SFT30191000      272.000000 0.010000   0.000000   0.000000   0.000000   0.000000  
; DIP
SPI30192100      SFT30192100      SFT30192200      1324.000000 0.010000   0.000000   0.000000   0.000000   0.000000  
; DIP
SPI30192200      SFT30192200      SFT30192300      26.000000  0.010000   0.000000   0.000000   0.000000   0.000000  
; DIP
SPI30192300      SFT30192300      SFT301E5016      1604.000000 0.010000   0.000000   0.000000   0.000000   0.000000  
; DIP
SPI30192500      SFT30192500      SFT301E5018      836.000000 0.010000   0.000000   0.000000   0.000000   0.000000  
; DIP
SPI30192600      SFT30192600      SFT301E5019      35.000000  0.010000   0.000000   0.000000   0.000000   0.000000  
; DIP
SPI30192800      SFT30192800      SFT30192300      43.000000  0.010000   0.000000   0.000000   0.000000   0.000000  
; ND
SPI30193100      SFT30193100      SFT30193200      311.000000 0.010000   0.000000   0.000000   0.000000   0.000000  
; ND
SPI30193200      SFT30193200      SFT30193300      29.000000  0.010000   0.000000   0.000000   0.000000   0.000000  
; ND
SPI30193300      SFT30193300      SFT30191300      12.000000  0.010000   0.000000   0.000000   0.000000   0.000000  
; DIP
SPI301E5001      SFT301E5001      SFT301E5021      823.000000 0.010000   0.000000   0.000000   0.000000   0.000000  
; DIP
SPI301E5002      SFT301E5002      SMH301E0007      51.000000  0.010000   0.000000   0.000000   0.000000   0.000000  
; DIP
SPI301E5003      SFT301E5003      JCT-310-2        231.000000 0.010000   0.000000   0.000000   0.000000   0.000000  
; DIP
SPI301E5004      SFT301E5004      SFT301E5005      841.000000 0.010000   0.000000   0.000000   0.000000   0.000000  
; DIP
SPI301E5005      SFT301E5005      JCT-310-2        149.000000 0.010000   0.000000   0.000000   0.000000   0.000000  
; DIP
SPI301E5006      SFT301E5006      SFT30109800      1102.000000 0.010000   0.000000   0.000000   0.000000   0.000000  
; DIP
SPI301E5007      SFT301E5007      SFT301E5006      845.000000 0.010000   0.000000   0.000000   0.000000   0.000000  
; DIP
SPI301E5008      SFT301E5008      SFT301E5007      42.000000  0.010000   0.000000   0.000000   0.000000   0.000000  
; DIP
SPI301E5009      SFT301E5009      SFT301E5008      1526.000000 0.010000   0.000000   0.000000   0.000000   0.000000  
; DIP
SPI301E5010      SFT301E5010      SFT301E5009      1032.000000 0.010000   0.000000   0.000000   0.000000   0.000000  
; DIP
SPI301E5011      SFT301E5011      SFT301E5010      1751.000000 0.010000   0.000000   0.000000   0.000000   0.000000  
; DIP
SPI301E5012      SFT301E5012      SFT301E5011      352.000000 0.010000   0.000000   0.000000   0.000000   0.000000  
; DIP
SPI301E5013      SFT301E5013      SFT301E5012      96.000000  0.010000   0.000000   0.000000   0.000000   0.000000  
; DIP
SPI301E5014      SFT301E5014      SFT301E5013      315.000000 0.010000   0.000000   0.000000   0.000000   0.000000  
; DIP
SPI301E5015      SFT301E5015      SFT301E5014      697.000000 0.010000   0.000000   0.000000   0.000000   0.000000  
; DIP
SPI301E5016      SFT301E5016      SFT301E5001      57.000000  0.010000   0.000000   0.000000   0.000000   0.000000  
; DIP
SPI301E5017      SFT301E5017      SFT301E5001      147.000000 0.010000   0.000000   0.000000   0.000000   0.000000  
; DIP
SPI301E5018      SFT301E5018      SFT301E5017      1017.000000 0.010000   0.000000   0.000000   0.000000   0.000000  
; DIP
SPI301E5019      SFT301E5019      SFT30192500      746.000000 0.010000   0.000000   0.000000   0.000000   0.000000  
; DIP
SPI301E5020      SFT301E5020      SFT30107200      351.000000 0.010000   0.000000   0.000000   0.000000   0.000000  
; DIP
SPI301E5021      SFT301E5021      SFT301E5015      557.000000 0.010000   0.000000   0.000000   0.000000   0.000000  
; DIP
SPI37006500      SFT37006500      SFT37006600      188.000000 0.010000   0.000000   0.000000   0.000000   0.000000  
; DIP
SPI37006600      SFT37006600      SFT37006700      399.000000 0.010000   0.000000   0.000000   0.000000   0.000000  
; DIP
SPI37006700      SFT37006700      SFT37006800      399.000000 0.010000   0.000000   0.000000   0.000000   0.000000  
; DIP
SPI37006800      SFT37006800      SFT37007500      78.000000  0.010000   0.000000   0.000000   0.000000   0.000000  
; DIP
SPI37006900      SFT37006900      SFT37007000      163.000000 0.010000   0.000000   0.000000   0.000000   0.000000  
; DIP
SPI37007000      SFT37007000      SFT301E5002      38.000000  0.010000   0.000000   0.000000   0.000000   0.000000  
; DIP
SPI37007100      SFT37007100      SMH301E0020      105.000000 0.010000   0.000000   0.000000   0.000000   0.000000  
; DIP
SPI37007200      SFT30107200      SFT37007100      548.000000 0.010000   0.000000   0.000000   0.000000   0.000000  
; DIP
SPI37007300      SFT37007300      SFT37007400      657.000000 0.010000   0.000000   0.000000   0.000000   0.000000  
; DIP
SPI37007400      SFT37007400      SFT301E5003      795.000000 0.010000   0.000000   0.000000   0.000000   0.000000  
; DIP
SPI37007500      SFT37007500      SFT37006900      87.000000  0.010000   0.000000   0.000000   0.000000   0.000000  
; DIP
SPI37007600      JCT-10           SFT37007300      98.000000  0.010000   0.000000   0.000000   0.000000   0.000000  

[PUMPS]
;;Name           From Node        To Node          Pump Curve       Status   Sartup Shutoff 
;;-------------- ---------------- ---------------- ---------------- ------ -------- --------
PUMP-11          SLS3010031G      JCT-10           100DLF611        ON       5.000000 3.000000
PUMP-31A         SLS3010031A      JCT-31A          150DLF637        ON       5.000000 3.000000
PUMP-31A1        SLS301031A1      JCT-31A1         100DLMF618       ON       5.000000 3.000000
PUMP-31A2        SLS301031A2      JCT-31A2         100DLMF63.7      ON       3.500000 2.000000