[TITLE]
;;Project Title/Notes
Scenario Run :  WRONG_INTERVAL
 SW 1 0 9A1 'BROWARD COUNTY Multi FAMILY SITE - Runoff example # 47'A2 'RUNO

[OPTIONS]
;;Option             Value
FLOW_UNITS           MGD
INFILTRATION         GREEN_AMPT
FLOW_ROUTING         DYNWAVE
LINK_OFFSETS         DEPTH
MIN_SLOPE            0
ALLOW_PONDING        NO
SKIP_STEADY_STATE    NO

START_DATE           01/01/2008
START_TIME           00:00:00
REPORT_START_DATE    01/01/2008
REPORT_START_TIME    00:00:00
END_DATE             06/30/2008
END_TIME             00:00:00
SWEEP_START          01/01
SWEEP_END            12/31
DRY_DAYS             0
REPORT_STEP          00:15:00
WET_STEP             00:15:00
DRY_STEP             00:15:00
ROUTING_STEP         0:01:00 
RULE_STEP            00:00:00

INERTIAL_DAMPING     NONE
NORMAL_FLOW_LIMITED  BOTH
FORCE_MAIN_EQUATION  H-W
VARIABLE_STEP        0.75
LENGTHENING_STEP     30
MIN_SURFAREA         0
MAX_TRIALS           0
HEAD_TOLERANCE       0
SYS_FLOW_TOL         5
LAT_FLOW_TOL         5
MINIMUM_STEP         0.5
THREADS              1

[EVAPORATION]
;;Data Source    Parameters
;;-------------- ----------------
CONSTANT         .25
RECOVERY         GA
DRY_ONLY         NO

[RAINGAGES]
;;Name           Format    Interval SCF      Source    
;;-------------- --------- ------ ------ ----------
GAGE1            INTENSITY 0.083333 1.000000 TIMESERIES RAINSERIES1     
RG02             VOLUME    00:15:00 1        FILE       "C:\NCIMM_Training\Data_Files\RAIN_GW.DAT" RG02       IN   

[SUBCATCHMENTS]
;;Name           Rain Gage        Outlet           Area     %Imperv  Width    %Slope   CurbLen  SnowPack        
;;-------------- ---------------- ---------------- -------- -------- -------- -------- -------- ----------------
CA-1             GAGE1            P005             5.000000 39.000000 600.000000 2.700000 0.000000                 
CA-11            GAGE1            P011             3.580000 47.000000 600.000000 2.700000 0.000000                 
CA-7             GAGE1            JCT-10           1.599000 48.600000 200.000000 2.700000 0.000000                 
CA-8             GAGE1            P009             4.565000 46.700000 500.000000 2.700000 0.000000                 

[SUBAREAS]
;;Subcatchment   N-Imperv   N-Perv     S-Imperv   S-Perv     PctZero    RouteTo    PctRouted 
;;-------------- ---------- ---------- ---------- ---------- ---------- ---------- ----------
CA-1             0.015000   0.410000   0.060000   0.200000   25.000000  OUTLET    
CA-11            0.015000   0.410000   0.060000   0.200000   25.000000  OUTLET    
CA-7             0.015000   0.410000   0.060000   0.200000   25.000000  OUTLET    
CA-8             0.015000   0.410000   0.060000   0.200000   25.000000  OUTLET    

[INFILTRATION]
;;Subcatchment   Param1     Param2     Param3     Param4     Param5    
;;-------------- ---------- ---------- ---------- ---------- ----------
CA-1             3.000000   0.100000   0.050000   0.001000   0.000000   HORTON
CA-11            3.000000   0.100000   0.050000   0.001000   0.000000   HORTON
CA-7             3.000000   0.100000   0.050000   0.001000   0.000000   HORTON
CA-8             3.000000   0.100000   0.050000   0.001000   0.000000   HORTON

[AQUIFERS]
;;Name           Por    WP     FC     Ksat   Kslope Tslope ETu    ETs    Seep   Ebot   Egw    Umc    ETupat 
;;-------------- ------ ------ ------ ------ ------ ------ ------ ------ ------ ------ ------ ------ ------
BROWARD          0.500000 0.150000 0.300000 5.000000 10.000000 15.000000 0.350000 14.000000 0.002000 0.000000 10.000000 0.300000       
Silty_Clay       0.479  0.251  0.371  0.02   .01    15     0.35   14     0      0      277    0.478        

[GROUNDWATER]
;;Subcatchment   Aquifer          Node             Esurf  A1     B1     A2     B2     A3     Dsw    Egwt   Ebot   Wgr    Umc   
;;-------------- ---------------- ---------------- ------ ------ ------ ------ ------ ------ ------ ------ ------ ------ ------

[JUNCTIONS]
;;Name           Elevation  MaxDepth   InitDepth  SurDepth   Aponded   
;;-------------- ---------- ---------- ---------- ---------- ----------
; Runoff Node
JCT-10           3.600000   20.000000  0.000000   0.000000   0.000000  
P001             1.100000   20.000000  0.000000   0.000000   0.000000  
P005             1.580000   20.000000  0.000000   0.000000   0.000000  
; Runoff Node
P009             3.600000   20.000000  0.000000   0.000000   0.000000  
; Runoff Node
P011             2.890000   20.000000  0.000000   0.000000   0.000000  

[OUTFALLS]
;;Name           Elevation  Type       Stage Data       Gated    Route To        
;;-------------- ---------- ---------- ---------------- -------- ----------------
OUTLET           0.000000   FREE                        NO                       

[CONDUITS]
;;Name           From Node        To Node          Length     Roughness  InOffset   OutOffset  InitFlow   MaxFlow   
;;-------------- ---------------- ---------------- ---------- ---------- ---------- ---------- ---------- ----------
CDT-11           JCT-10           P005             655.000000 0.024000   -0.710000  0.000000   0.000000   0.000000  
CDT-13           P011             P005             655.000000 0.024000   0.000000   0.000000   0.000000   0.000000  
CDT-15           P011             P005             655.000000 0.024000   0.000000   0.000000   0.000000   0.000000  
P001             P001             OUTLET           220.000000 0.015000   0.000000   0.000000   0.000000   0.000000  
P005             P005             P001             240.000000 0.015000   0.000000   0.000000   0.000000   0.000000  
P009             P009             P005             505.000000 0.024000   0.000000   0.000000   0.000000   0.000000  
P011             P011             P005             655.000000 0.024000   0.000000   0.000000   0.000000   0.000000  

[XSECTIONS]
;;Link           Shape        Geom1            Geom2      Geom3      Geom4      Barrels    Culvert   
;;-------------- ------------ ---------------- ---------- ---------- ---------- ---------- ----------
CDT-11           CIRCULAR     2.500000         0.000000   0.000000   0.000000   1          0         
CDT-13           CIRCULAR     2.500000         0.000000   0.000000   0.000000   1          0         
CDT-15           CIRCULAR     2.500000         0.000000   0.000000   0.000000   1          0         
P001             CIRCULAR     4.000000         0.000000   0.000000   0.000000   1          0         
P005             CIRCULAR     3.000000         0.000000   0.000000   0.000000   1          0         
P009             CIRCULAR     2.250000         0.000000   0.000000   0.000000   1          0         
P011             CIRCULAR     2.500000         0.000000   0.000000   0.000000   1          0         

[LOSSES]
;;Link           Kentry     Kexit      Kavg       Flap Gate  Seepage   
;;-------------- ---------- ---------- ---------- ---------- ----------
CDT-11           0.000000   0.000000   0.000000   NO         0.000000  
CDT-13           0.000000   0.000000   0.000000   NO         0.000000  
CDT-15           0.000000   0.000000   0.000000   NO         0.000000  
P001             0.000000   0.000000   0.000000   NO         0.000000  
P005             0.000000   0.000000   0.000000   NO         0.000000  
P009             0.000000   0.000000   0.000000   NO         0.000000  
P011             0.000000   0.000000   0.000000   NO         0.000000  

[CONTROLS]



[POLLUTANTS]
;;Name           Units  Crain      Cgw        Crdii      Kdecay     SnowOnly   Co-Pollutant     Co-Frac    Cdwf       Cinit     
;;-------------- ------ ---------- ---------- ---------- ---------- ---------- ---------------- ---------- ---------- ----------
TSS              MG/L   10.000000  0.000000   0.000000   0.000000   NO         *                0.000000   0.000000   0.000000  
TP               MG/L   .10        0.0        0.0        0.0        NO         *                0.0        0.0        0.0       

[LANDUSES]
;;               Sweeping   Fraction   Last      
;;Name           Interval   Available  Swept     
;;-------------- ---------- ---------- ----------
URBAN            0.000000   0.000000   0.000000  

[COVERAGES]
;;Subcatchment   Land Use         Percent   
;;-------------- ---------------- ----------
CA-1             URBAN            100.000000
CA-11            URBAN            100.000000
CA-7             URBAN            100.000000
CA-8             URBAN            100.000000

[LOADINGS]
;;Subcatchment   Pollutant        Buildup   
;;-------------- ---------------- ----------

[BUILDUP]
;;Land Use       Pollutant        Function   Coeff1     Coeff2     Coeff3     Per Unit  
;;-------------- ---------------- ---------- ---------- ---------- ---------- ----------
URBAN            TSS              NONE       0.0        0.0        0.0        AREA      

[WASHOFF]
;;Land Use       Pollutant        Function   Coeff1     Coeff2     SweepRmvl  BmpRmvl   
;;-------------- ---------------- ---------- ---------- ---------- ---------- ----------
URBAN            TSS              EMC        1          0.000000   0.000000   0.000000  

[INFLOWS]
;;Node           Constituent      Time Series      Type     Mfactor  Sfactor  Baseline Pattern
;;-------------- ---------------- ---------------- -------- -------- -------- -------- --------
P011             FLOW             ""               FLOW     1.0      1.000000         

[HYDROGRAPHS]
;;Hydrograph     Rain Gage/Month  Response R        T        K        Dmax     Drecov   Dinit   
;;-------------- ---------------- -------- -------- -------- -------- -------- -------- --------
UHLow            RG02            
UHLow            All              Short    0.011    0.75     2        0        0        0       
UHLow            All              Medium   0.005    1.5      3        0        0        0       
UHLow            All              Long     0.004    2        3        0        0        0       


[CURVES]
;;Name           Type       X-Value    Y-Value   
;;-------------- ---------- ---------- ----------
;Belvoir_PS_Pumps (Depth-QMGD)
Belvoir_PS_Pumps PUMP4      0          0         
Belvoir_PS_Pumps            0.02       0.34625   
Belvoir_PS_Pumps            0.22       1.30875   
Belvoir_PS_Pumps            0.42       2.27125   
Belvoir_PS_Pumps            0.62       3.23375   
Belvoir_PS_Pumps            0.82       4.19625   
Belvoir_PS_Pumps            1.02       5.15875   
Belvoir_PS_Pumps            1.22       6.12125   
Belvoir_PS_Pumps            1.42       7.08375   
Belvoir_PS_Pumps            1.62       8.04625   
Belvoir_PS_Pumps            1.82       9.00875   
Belvoir_PS_Pumps            2.02       9.97125   
Belvoir_PS_Pumps            2.22       10.93375  
Belvoir_PS_Pumps            2.42       11.89625  
Belvoir_PS_Pumps            2.62       12.85875  
Belvoir_PS_Pumps            2.82       13.82125  
Belvoir_PS_Pumps            3.02       14.78375  
Belvoir_PS_Pumps            3.22       15.74625  
Belvoir_PS_Pumps            3.42       16.70875  
Belvoir_PS_Pumps            3.62       17.67125  
Belvoir_PS_Pumps            3.82       18.63375  
Belvoir_PS_Pumps            4.02       19.59625  
Belvoir_PS_Pumps            4.22       20.55875  
Belvoir_PS_Pumps            4.42       21.52125  
;
;PS 51 Fixed Flow (Head-QMGD)
PS51_PC          Pump3      10         .3625     
PS51_PC                     130        0.29      
PS51_PC                     175        .2175     
;
;CSO Control Facility #23 Flap Valve (H-QMGD)
SER_37_37G_TIDE_FLEX_FLAP_VALVE Rating     0          0         
SER_37_37G_TIDE_FLEX_FLAP_VALVE            0.418      0.287     
SER_37_37G_TIDE_FLEX_FLAP_VALVE            0.853      0.575     
SER_37_37G_TIDE_FLEX_FLAP_VALVE            1.305      0.862     
SER_37_37G_TIDE_FLEX_FLAP_VALVE            1.773      1.15      
SER_37_37G_TIDE_FLEX_FLAP_VALVE            2.258      1.437     
SER_37_37G_TIDE_FLEX_FLAP_VALVE            4.934      2.874     
SER_37_37G_TIDE_FLEX_FLAP_VALVE            11.834     5.748     
SER_37_37G_TIDE_FLEX_FLAP_VALVE            20.302     8.621     
;
;CSO Control Facility #23 Flap Valve (H-QMGD)
SER_35_TIDE_FLEX_FLAP_VALVE Rating     0          0         
SER_35_TIDE_FLEX_FLAP_VALVE            0.12       0.29      
SER_35_TIDE_FLEX_FLAP_VALVE            0.26       0.57      
SER_35_TIDE_FLEX_FLAP_VALVE            0.4        0.862     
SER_35_TIDE_FLEX_FLAP_VALVE            0.55       1.15      
SER_35_TIDE_FLEX_FLAP_VALVE            0.71       1.437     
SER_35_TIDE_FLEX_FLAP_VALVE            1.64       2.874     
SER_35_TIDE_FLEX_FLAP_VALVE            4.2        5.748     
SER_35_TIDE_FLEX_FLAP_VALVE            7.6        8.621     
SER_35_TIDE_FLEX_FLAP_VALVE            11.8       11.5      
SER_35_TIDE_FLEX_FLAP_VALVE            17         14.37     
;
;CSO Facility #23 Hydrobrake (H-QMGD)
CSO_23_HYDROBRAKE Rating     0          0         
CSO_23_HYDROBRAKE            0.25       0.2       
CSO_23_HYDROBRAKE            0.4        0.4       
CSO_23_HYDROBRAKE            0.45       0.5       
CSO_23_HYDROBRAKE            0.7        0.6       
CSO_23_HYDROBRAKE            1          0.7       
CSO_23_HYDROBRAKE            2.15       0.95      
CSO_23_HYDROBRAKE            3.5        1.2       
CSO_23_HYDROBRAKE            4.9        1.4       
CSO_23_HYDROBRAKE            8          1.7       
CSO_23_HYDROBRAKE            10         1.87      
CSO_23_HYDROBRAKE            11         1.9       
CSO_23_HYDROBRAKE            14         2.1       
;
;CSO Facility #22 Hydrobrake (H-QMGD)
CSO_22_HYDROBRAKE Rating     0          0         
CSO_22_HYDROBRAKE            0.25       0.2       
CSO_22_HYDROBRAKE            0.3        0.4       
CSO_22_HYDROBRAKE            0.4        0.5       
CSO_22_HYDROBRAKE            0.5        1         
CSO_22_HYDROBRAKE            0.7        1.5       
CSO_22_HYDROBRAKE            1.1        2.1       
CSO_22_HYDROBRAKE            1.5        2.3       
CSO_22_HYDROBRAKE            2.8        2.6       
CSO_22_HYDROBRAKE            4.3        3         
CSO_22_HYDROBRAKE            5.8        3.5       
CSO_22_HYDROBRAKE            7.8        4.5       
CSO_22_HYDROBRAKE            8.7        5         
;
;CSO Facility #22A Hydrobrake (H-QMGD)
CSO_22A_HYDROBRAKE Rating     0          0         
CSO_22A_HYDROBRAKE            0.15       0.04      
CSO_22A_HYDROBRAKE            0.2        0.11      
CSO_22A_HYDROBRAKE            0.4        0.18      
CSO_22A_HYDROBRAKE            0.6        0.2       
CSO_22A_HYDROBRAKE            0.8        0.22      
CSO_22A_HYDROBRAKE            1.1        0.23      
CSO_22A_HYDROBRAKE            2.1        0.26      
CSO_22A_HYDROBRAKE            2.4        0.27      
CSO_22A_HYDROBRAKE            2.6        0.285     
CSO_22A_HYDROBRAKE            3          0.45      
CSO_22A_HYDROBRAKE            3.6        0.7       
CSO_22A_HYDROBRAKE            3.8        0.8       
CSO_22A_HYDROBRAKE            4.25       1.2       
;
;CSO Facility #21 Hydrobrake (H-QMGD)
CSO_21_HYDROBRAKE Rating     0          0         
CSO_21_HYDROBRAKE            0.1        0.014     
CSO_21_HYDROBRAKE            0.2        0.13      
CSO_21_HYDROBRAKE            0.5        0.15      
CSO_21_HYDROBRAKE            1.8        0.2       
CSO_21_HYDROBRAKE            3.2        0.25      
CSO_21_HYDROBRAKE            5          0.3       
CSO_21_HYDROBRAKE            8          0.35      
CSO_21_HYDROBRAKE            10         0.38      
;
;CSO Facility #19 Hydrobrake (H-QMGD)
CSO_19_HYDROBRAKE Rating     0          0         
CSO_19_HYDROBRAKE            0.2        0.17      
CSO_19_HYDROBRAKE            0.36       0.54      
CSO_19_HYDROBRAKE            0.7        0.6       
CSO_19_HYDROBRAKE            1.3        0.72      
CSO_19_HYDROBRAKE            1.7        0.78      
CSO_19_HYDROBRAKE            3.5        1         
CSO_19_HYDROBRAKE            4.8        1.2       
CSO_19_HYDROBRAKE            5.8        1.35      
CSO_19_HYDROBRAKE            7          1.53      
CSO_19_HYDROBRAKE            8          1.7       
;
;NPDES CSO Outfall #15 Overflow Weir (H-QMGD)
NPDES_15A_OVERFLOW_WEIR Rating     0          0         
NPDES_15A_OVERFLOW_WEIR            0.1        0.23      
NPDES_15A_OVERFLOW_WEIR            0.2        0.73      
NPDES_15A_OVERFLOW_WEIR            0.3        1.43      
NPDES_15A_OVERFLOW_WEIR            0.4        2.31      
NPDES_15A_OVERFLOW_WEIR            0.5        3.35      
NPDES_15A_OVERFLOW_WEIR            0.6        4.54      
NPDES_15A_OVERFLOW_WEIR            0.7        5.87      
NPDES_15A_OVERFLOW_WEIR            0.8        7.34      
NPDES_15A_OVERFLOW_WEIR            0.9        8.9       
NPDES_15A_OVERFLOW_WEIR            1          10.65     
NPDES_15A_OVERFLOW_WEIR            1.2        14.43     
NPDES_15A_OVERFLOW_WEIR            1.4        18.65     
NPDES_15A_OVERFLOW_WEIR            1.6        23.3      
NPDES_15A_OVERFLOW_WEIR            1.8        28.35     
NPDES_15A_OVERFLOW_WEIR            2          33.8      
NPDES_15A_OVERFLOW_WEIR            3          66.4      
;
;CSO Facility #20 Hydrobrake (H-QMGD)
CSO20_HYDROBRAKE Rating     0          0         
CSO20_HYDROBRAKE            0.23       0.05      
CSO20_HYDROBRAKE            0.5        0.31      
CSO20_HYDROBRAKE            3          0.33      
CSO20_HYDROBRAKE            5.3        0.4       
CSO20_HYDROBRAKE            8.2        0.48      
CSO20_HYDROBRAKE            11.5       0.55      
CSO20_HYDROBRAKE            14         0.6       
;
;Belvoir Pump Station upstream Flap Valve/Weir (H-QMGD)
BELVOIR_PUMP_STATION_FLAP_GATE Rating     0          0         
BELVOIR_PUMP_STATION_FLAP_GATE            0.1        0         
BELVOIR_PUMP_STATION_FLAP_GATE            0.2        0.589     
BELVOIR_PUMP_STATION_FLAP_GATE            0.3        1.667     
BELVOIR_PUMP_STATION_FLAP_GATE            0.4        3.063     
BELVOIR_PUMP_STATION_FLAP_GATE            0.5        4.715     
BELVOIR_PUMP_STATION_FLAP_GATE            0.6        6.59      
BELVOIR_PUMP_STATION_FLAP_GATE            0.7        8.662     
BELVOIR_PUMP_STATION_FLAP_GATE            0.8        10.916    
BELVOIR_PUMP_STATION_FLAP_GATE            0.9        13.337    
BELVOIR_PUMP_STATION_FLAP_GATE            1          15.914    
BELVOIR_PUMP_STATION_FLAP_GATE            1.1        18.639    
BELVOIR_PUMP_STATION_FLAP_GATE            1.2        21.503    
BELVOIR_PUMP_STATION_FLAP_GATE            1.3        24.501    
BELVOIR_PUMP_STATION_FLAP_GATE            1.4        27.627    
BELVOIR_PUMP_STATION_FLAP_GATE            1.5        30.875    
BELVOIR_PUMP_STATION_FLAP_GATE            1.6        34.241    
BELVOIR_PUMP_STATION_FLAP_GATE            2.1        39.538    
BELVOIR_PUMP_STATION_FLAP_GATE            2.6        44.205    
BELVOIR_PUMP_STATION_FLAP_GATE            3.1        48.425    
BELVOIR_PUMP_STATION_FLAP_GATE            3.6        52.304    
BELVOIR_PUMP_STATION_FLAP_GATE            4.1        55.916    
BELVOIR_PUMP_STATION_FLAP_GATE            4.6        59.308    
BELVOIR_PUMP_STATION_FLAP_GATE            5.1        62.516    
;
;Cunette 025-373
025373_CNET      Shape      0          0         
025373_CNET                 0.01       0.09      
025373_CNET                 0.02       0.17      
025373_CNET                 0.05       0.24      
025373_CNET                 0.08       0.29      
025373_CNET                 0.12       0.32      
025373_CNET                 0.17       0.33      
025373_CNET                 0.22       0.83      
025373_CNET                 0.25       0.87      
025373_CNET                 0.37       0.97      
025373_CNET                 0.5        1         
025373_CNET                 0.63       0.97      
025373_CNET                 0.75       0.87      
025373_CNET                 0.85       0.71      
025373_CNET                 0.93       0.5       
025373_CNET                 0.98       0.26      
025373_CNET                 1          0         
;
017253_CNET      Shape      0          0         
017253_CNET                 0.006      0.086     
017253_CNET                 0.022      0.167     
017253_CNET                 0.049      0.236     
017253_CNET                 0.083      0.289     
017253_CNET                 0.124      0.322     
017253_CNET                 0.167      0.333     
017253_CNET                 0.224      0.833     
017253_CNET                 0.25       0.866     
017253_CNET                 0.371      0.966     
017253_CNET                 0.5        1         
017253_CNET                 0.629      0.966     
017253_CNET                 0.75       0.866     
017253_CNET                 0.854      0.707     
017253_CNET                 0.933      0.5       
017253_CNET                 0.983      0.259     
017253_CNET                 1          0         
;
025299_CNET      Shape      0          0         
025299_CNET                 0.003      0.043     
025299_CNET                 0.011      0.083     
025299_CNET                 0.024      0.118     
025299_CNET                 0.042      0.144     
025299_CNET                 0.062      0.161     
025299_CNET                 0.083      0.167     
025299_CNET                 0.186      0.778     
025299_CNET                 0.25       0.866     
025299_CNET                 0.371      0.966     
025299_CNET                 0.5        1         
025299_CNET                 0.629      0.966     
025299_CNET                 0.75       0.866     
025299_CNET                 0.854      0.707     
025299_CNET                 0.933      0.5       
025299_CNET                 0.983      0.259     
025299_CNET                 1          0         
;
025376_CNET      Shape      0          0         
025376_CNET                 0.003      0.05      
025376_CNET                 0.01       0.09      
025376_CNET                 0.03       0.13      
025376_CNET                 0.05       0.16      
025376_CNET                 0.07       0.18      
025376_CNET                 0.09       0.19      
025376_CNET                 0.22       0.83      
025376_CNET                 0.25       0.87      
025376_CNET                 0.37       0.97      
025376_CNET                 0.5        1         
025376_CNET                 0.63       0.97      
025376_CNET                 0.75       0.87      
025376_CNET                 0.85       0.71      
025376_CNET                 0.93       0.5       
025376_CNET                 0.98       0.26      
025376_CNET                 1          0         
;
;Belvoir PS WW Storage (Depth-AreaSqFt)
Belvoir_WW       Storage    0          96.5      
Belvoir_WW                  1.92       221.5     
Belvoir_WW                  1.93       387       
Belvoir_WW                  2          457       
Belvoir_WW                  4.6        219.2     
Belvoir_WW                  7.35       219.2     
Belvoir_WW                  7.36       32        
Belvoir_WW                  19.55      32        
Belvoir_WW                  19.56      3.1       
Belvoir_WW                  27.61      3.1       

[TIMESERIES]
;;Name           Date       Time       Value     
;;-------------- ---------- ---------- ----------
RAINSERIES1      07/15/1977 06:30      0.000000  
RAINSERIES1                 06:35      0.840000  
RAINSERIES1                 06:40      0.040000  
RAINSERIES1                 06:45      0.020000  
RAINSERIES1                 06:50      0.000000  
RAINSERIES1                 07:05      0.000000  
RAINSERIES1                 07:10      0.680000  
RAINSERIES1                 07:15      0.880000  
RAINSERIES1      07/15/1977 07:20      2.020000  
RAINSERIES1                 07:25      2.130000  
RAINSERIES1                 07:30      0.630000  
RAINSERIES1                 07:35      2.330000  
RAINSERIES1                 07:40      0.310000  
RAINSERIES1      07/15/1977 07:45      0.200000  
RAINSERIES1                 07:50      0.000000  
RAINSERIES1                 08:00      0.000000  
RAINSERIES1                 08:05      0.020000  
RAINSERIES1      07/15/1977 08:10      0.000000  
RAINSERIES1                 08:25      0.000000  
RAINSERIES1                 08:30      0.220000  
RAINSERIES1      07/15/1977 08:35      2.390000  
RAINSERIES1                 08:40      0.400000  
RAINSERIES1                 08:45      0.860000  
RAINSERIES1                 08:50      2.790000  
RAINSERIES1                 08:55      1.380000  
RAINSERIES1      07/15/1977 09:00      1.080000  
RAINSERIES1                 09:05      0.640000  
RAINSERIES1                 09:10      0.020000  
RAINSERIES1                 09:15      0.150000  
RAINSERIES1                 09:20      0.000000  
;
;Daily Water Level at Lake Washington
Lake_Washington_Level 01/01/1978 0          16.75     
Lake_Washington_Level 01/02/1978 0          16.76     
Lake_Washington_Level 01/03/1978 0          16.81     
Lake_Washington_Level 01/04/1978 0          16.75     
Lake_Washington_Level 01/05/1978 0          16.78     
Lake_Washington_Level 01/06/1978 0          16.77     
Lake_Washington_Level 01/07/1978 0          16.79     
Lake_Washington_Level 01/08/1978 0          16.8      
Lake_Washington_Level 01/09/1978 0          16.74     
Lake_Washington_Level 01/10/1978 0          16.8      
Lake_Washington_Level 01/11/1978 0          16.8      
Lake_Washington_Level 01/12/1978 0          16.77     
Lake_Washington_Level 01/13/1978 0          16.77     
Lake_Washington_Level 01/14/1978 0          16.78     
Lake_Washington_Level 01/15/1978 0          16.76     
Lake_Washington_Level 01/16/1978 0          16.76     
Lake_Washington_Level 01/17/1978 0          16.76     
Lake_Washington_Level 01/18/1978 0          16.77     
Lake_Washington_Level 01/19/1978 0          16.81     
Lake_Washington_Level 01/20/1978 0          16.84     
Lake_Washington_Level 01/21/1978 0          16.92     
Lake_Washington_Level 01/22/1978 0          16.94     
Lake_Washington_Level 01/23/1978 0          16.93     
Lake_Washington_Level 01/24/1978 0          16.98     
Lake_Washington_Level 01/25/1978 0          17.04     
Lake_Washington_Level 01/26/1978 0          17.08     
Lake_Washington_Level 01/27/1978 0          17.08     
Lake_Washington_Level 01/28/1978 0          17.06     
Lake_Washington_Level 01/29/1978 0          17.04     
Lake_Washington_Level 01/30/1978 0          17.03     
Lake_Washington_Level 01/31/1978 0          17.02     
Lake_Washington_Level 02/01/1978 0          17.03     
Lake_Washington_Level 02/02/1978 0          17.05     
Lake_Washington_Level 02/03/1978 0          16.99     
Lake_Washington_Level 02/04/1978 0          17.03     
Lake_Washington_Level 02/05/1978 0          17.07     
Lake_Washington_Level 02/06/1978 0          17.11     
Lake_Washington_Level 02/07/1978 0          17.05     
Lake_Washington_Level 02/08/1978 0          17.08     
Lake_Washington_Level 02/09/1978 0          17.08     
Lake_Washington_Level 02/10/1978 0          17.04     
Lake_Washington_Level 02/11/1978 0          17.05     
Lake_Washington_Level 02/12/1978 0          17.07     
Lake_Washington_Level 02/13/1978 0          17.07     
Lake_Washington_Level 02/14/1978 0          17.07     
Lake_Washington_Level 02/15/1978 0          17.07     
Lake_Washington_Level 02/16/1978 0          17.02     
Lake_Washington_Level 02/17/1978 0          17.05     
Lake_Washington_Level 02/18/1978 0          17.08     
Lake_Washington_Level 02/19/1978 0          17.07     
Lake_Washington_Level 02/20/1978 0          17.04     
Lake_Washington_Level 02/21/1978 0          17.05     
Lake_Washington_Level 02/22/1978 0          17.06     
Lake_Washington_Level 02/23/1978 0          17.06     
Lake_Washington_Level 02/24/1978 0          17.01     
Lake_Washington_Level 02/25/1978 0          17.05     
Lake_Washington_Level 02/26/1978 0          17.07     
Lake_Washington_Level 02/27/1978 0          17.03     
Lake_Washington_Level 02/28/1978 0          17.06     
Lake_Washington_Level 03/01/1978 0          17.1      
Lake_Washington_Level 03/02/1978 0          17.09     
Lake_Washington_Level 03/03/1978 0          17.13     
Lake_Washington_Level 03/04/1978 0          17.13     
Lake_Washington_Level 03/05/1978 0          17.16     
Lake_Washington_Level 03/06/1978 0          17.19     
Lake_Washington_Level 03/07/1978 0          17.26     
Lake_Washington_Level 03/08/1978 0          17.26     
Lake_Washington_Level 03/09/1978 0          17.28     
Lake_Washington_Level 03/10/1978 0          17.3      
Lake_Washington_Level 03/11/1978 0          17.34     
Lake_Washington_Level 03/12/1978 0          17.35     
Lake_Washington_Level 03/13/1978 0          17.33     
Lake_Washington_Level 03/14/1978 0          17.39     
Lake_Washington_Level 03/15/1978 0          17.42     
Lake_Washington_Level 03/16/1978 0          17.45     
Lake_Washington_Level 03/17/1978 0          17.47     
Lake_Washington_Level 03/18/1978 0          17.5      
Lake_Washington_Level 03/19/1978 0          17.53     
Lake_Washington_Level 03/20/1978 0          17.53     
Lake_Washington_Level 03/21/1978 0          17.56     
Lake_Washington_Level 03/22/1978 0          17.59     
Lake_Washington_Level 03/23/1978 0          17.62     
Lake_Washington_Level 03/24/1978 0          17.66     
Lake_Washington_Level 03/25/1978 0          17.67     
Lake_Washington_Level 03/26/1978 0          17.7      
Lake_Washington_Level 03/27/1978 0          17.68     
Lake_Washington_Level 03/28/1978 0          17.71     
Lake_Washington_Level 03/29/1978 0          17.77     
Lake_Washington_Level 03/30/1978 0          17.82     
Lake_Washington_Level 03/31/1978 0          17.85     
Lake_Washington_Level 04/01/1978 0          17.86     
Lake_Washington_Level 04/02/1978 0          17.91     
Lake_Washington_Level 04/03/1978 0          17.97     
Lake_Washington_Level 04/04/1978 0          18.03     