[TITLE]
;;Project Title/Notes
Scenario Run :  BASE

[OPTIONS]
;;Option             Value
FLOW_UNITS           LPS
INFILTRATION         HORTON
FLOW_ROUTING         DYNWAVE
LINK_OFFSETS         DEPTH
MIN_SLOPE            0
ALLOW_PONDING        NO
SKIP_STEADY_STATE    NO

START_DATE           02/18/2013
START_TIME           00:00:00
REPORT_START_DATE    02/18/2013
REPORT_START_TIME    00:00:00
END_DATE             02/18/2013
END_TIME             03:00:00
SWEEP_START          01/01
SWEEP_END            12/31
DRY_DAYS             0.000000
REPORT_STEP          00:00:10
WET_STEP             00:05:00
DRY_STEP             01:00:00
ROUTING_STEP         0:00:01 
RULE_STEP            00:00:00

INERTIAL_DAMPING     NONE
NORMAL_FLOW_LIMITED  BOTH
FORCE_MAIN_EQUATION  H-W
VARIABLE_STEP        0.50
LENGTHENING_STEP     0
MIN_SURFAREA         1.000000
MAX_TRIALS           8
HEAD_TOLERANCE       0.000010
SYS_FLOW_TOL         5
LAT_FLOW_TOL         5
MINIMUM_STEP         0
THREADS              1

[EVAPORATION]
;;Data Source    Parameters
;;-------------- ----------------
CONSTANT         0.000000
DRY_ONLY         NO

[JUNCTIONS]
;;Name           Elevation  MaxDepth   InitDepth  SurDepth   Aponded   
;;-------------- ---------- ---------- ---------- ---------- ----------
A                284.645077 10.000000  0.000000   100        0         
B                285.072686 10.000000  0.000000   100        0         
C                285.500937 10.000000  0.000000   100        0         
D                285.929832 10.000000  0.000000   100        0         
E                286.359371 10.000000  0.000000   100        0         
F                287.220300 10.000000  0.000000   100        0         
G                287.220386 10.000000  0.000000   100        0         
H                287.651864 10.000000  0.000000   100        0         
I                288.083990 10.000000  0.000000   100        0         
J                288.950190 10.000000  0.000000   100        0         
K                288.950190 10.000000  0.000000   100        0         
L                289.384267 10.000000  0.000000   100        0         
M                289.818995 10.000000  0.000000   100        0         
N                290.254377 10.000000  0.000000   100        0         
O                290.690412 10.000000  0.000000   100        0         
P                291.127103 10.000000  0.000000   100        0         
Q                291.564450 10.000000  0.000000   100        0         
R                292.002453 10.000000  0.000000   100        0         
S                292.441115 10.000000  0.000000   100        0         

[OUTFALLS]
;;Name           Elevation  Type       Stage Data       Gated    Route To        
;;-------------- ---------- ---------- ---------------- -------- ----------------
OUTFALL          282.244800 FREE                        NO                       

[STORAGE]
;;Name           Elev.    MaxDepth   InitDepth  Shape      Curve Name/Params            N/A      Fevap    Psi      Ksat     IMD     
;;-------------- -------- ---------- ----------- ---------- ---------------------------- -------- --------          -------- --------
T                292.441120 10.000000  0.000000   FUNCTIONAL 1         0         0        0        0       

[CONDUITS]
;;Name           From Node        To Node          Length     Roughness  InOffset   OutOffset  InitFlow   MaxFlow   
;;-------------- ---------------- ---------------- ---------- ---------- ---------- ---------- ---------- ----------
1                A                OUTFALL          100        0.012000   0.000000   0.000000   0.000000   0.000000  
10               J                I                100        0.012000   0.000000   0.000000   0.000000   0.000000  
11               K                J                100        0.012000   0.000000   0.000000   0.000000   0.000000  
12               L                K                100        0.012000   0.000000   0.000000   0.000000   0.000000  
13               M                L                100        0.012000   0.000000   0.000000   0.000000   0.000000  
14               N                M                100        0.012000   0.000000   0.000000   0.000000   0.000000  
15               O                N                100        0.012000   0.000000   0.000000   0.000000   0.000000  
16               P                O                100        0.012000   0.000000   0.000000   0.000000   0.000000  
17               Q                P                100        0.012000   0.000000   0.000000   0.000000   0.000000  
18               R                Q                100        0.012000   0.000000   0.000000   0.000000   0.000000  
19               S                R                100        0.012000   0.000000   0.000000   0.000000   0.000000  
2                B                A                100        0.012000   0.000000   0.000000   0.000000   0.000000  
3                C                B                100        0.012000   0.000000   0.000000   0.000000   0.000000  
4                D                C                100        0.012000   0.000000   0.000000   0.000000   0.000000  
5                E                D                100        0.012000   0.000000   0.000000   0.000000   0.000000  
6                F                E                100        0.012000   0.000000   0.000000   0.000000   0.000000  
7                G                F                100        0.012000   0.000000   0.000000   0.000000   0.000000  
8                H                G                100        0.012000   0.000000   0.000000   0.000000   0.000000  
9                I                H                100        0.012000   0.000000   0.000000   0.000000   0.000000  

[PUMPS]
;;Name           From Node        To Node          Pump Curve       Status   Sartup Shutoff 
;;-------------- ---------------- ---------------- ---------------- ------ -------- --------
20               T                S                WELWYN.1         ON       2        1       

[XSECTIONS]
;;Link           Shape        Geom1            Geom2      Geom3      Geom4      Barrels    Culvert   
;;-------------- ------------ ---------------- ---------- ---------- ---------- ---------- ----------
1                FORCE_MAIN   2                120        0          0          1          0         
10               FORCE_MAIN   2                120        0          0          1          0         
11               FORCE_MAIN   2                120        0          0          1          0         
12               FORCE_MAIN   2                120        0          0          1          0         
13               FORCE_MAIN   2                120        0          0          1          0         
14               FORCE_MAIN   2                120        0          0          1          0         
15               FORCE_MAIN   2                120        0          0          1          0         
16               FORCE_MAIN   2                120        0          0          1          0         
17               FORCE_MAIN   2                120        0          0          1          0         
18               FORCE_MAIN   2                120        0          0          1          0         
19               FORCE_MAIN   2                120        0          0          1          0         
2                FORCE_MAIN   2                120        0          0          1          0         
3                FORCE_MAIN   2                120        0          0          1          0         
4                FORCE_MAIN   2                120        0          0          1          0         
5                FORCE_MAIN   2                120        0          0          1          0         
6                FORCE_MAIN   2                120        0          0          1          0         
7                FORCE_MAIN   2                120        0          0          1          0         
8                FORCE_MAIN   2                120        0          0          1          0         
9                FORCE_MAIN   2                120        0          0          1          0         

[LOSSES]
;;Link           Kentry     Kexit      Kavg       Flap Gate  Seepage   
;;-------------- ---------- ---------- ---------- ---------- ----------
1                0.000000   0.000000   0.000000   NO         0.000000  
10               0.000000   0.000000   0.000000   NO         0.000000  
11               0.000000   0.000000   0.000000   NO         0.000000  
12               0.000000   0.000000   0.000000   NO         0.000000  
13               0.000000   0.000000   0.000000   NO         0.000000  
14               0.000000   0.000000   0.000000   NO         0.000000  
15               0.000000   0.000000   0.000000   NO         0.000000  
16               0.000000   0.000000   0.000000   NO         0.000000  
17               0.000000   0.000000   0.000000   NO         0.000000  
18               0.000000   0.000000   0.000000   NO         0.000000  
19               0.000000   0.000000   0.000000   NO         0.000000  
2                0.000000   0.000000   0.000000   NO         0.000000  
3                0.000000   0.000000   0.000000   NO         0.000000  
4                0.000000   0.000000   0.000000   NO         0.000000  
5                0.000000   0.000000   0.000000   NO         0.000000  
6                0.000000   0.000000   0.000000   NO         0.000000  
7                0.000000   0.000000   0.000000   NO         0.000000  
8                0.000000   0.000000   0.000000   NO         0.000000  
9                0.000000   0.000000   0.000000   NO         0.000000  

[CONTROLS]




[INFLOWS]
;;Node           Constituent      Time Series      Type     Mfactor  Sfactor  Baseline Pattern
;;-------------- ---------------- ---------------- -------- -------- -------- -------- --------
A                FLOW             ""               FLOW     1.0      0.010000 0.01    
B                FLOW             ""               FLOW     1.0      0.010000 0.01    
C                FLOW             ""               FLOW     1.0      0.010000 0.01    
D                FLOW             ""               FLOW     1.0      0.010000 0.01    
E                FLOW             ""               FLOW     1.0      0.010000 0.01    
F                FLOW             ""               FLOW     1.0      0.010000 0.01    
G                FLOW             ""               FLOW     1.0      0.010000 0.01    
H                FLOW             ""               FLOW     1.0      0.010000 0.01    
I                FLOW             ""               FLOW     1.0      0.010000 0.01    
J                FLOW             ""               FLOW     1.0      0.010000 0.01    
K                FLOW             ""               FLOW     1.0      0.010000 0.01    
L                FLOW             ""               FLOW     1.0      0.010000 0.01    
M                FLOW             ""               FLOW     1.0      0.010000 0.01    
N                FLOW             ""               FLOW     1.0      0.010000 0.01    
O                FLOW             ""               FLOW     1.0      0.010000 0.01    
P                FLOW             ""               FLOW     1.0      0.010000 0.01    
Q                FLOW             ""               FLOW     1.0      0.010000 0.01    
R                FLOW             ""               FLOW     1.0      0.010000 0.01    
S                FLOW             ""               FLOW     1.0      0.010000 0.01    
T                FLOW             ""               FLOW     1.0      1        3       

[CURVES]
;;Name           Type       X-Value    Y-Value   
;;-------------- ---------- ---------- ----------
WELWYN.1         Pump3      5          9         
WELWYN.1                    36.271198  5         
WELWYN.1                    67.056000  3         

[REPORT]
;;Reporting Options
INPUT      YES
SUBCATCHMENTS ALL
NODES ALL
LINKS ALL

[TAGS]

[MAP]
DIMENSIONS 701450.593 451954.396 702227.581 452559.801
Units      None

[COORDINATES]
;;Node           X-Coord            Y-Coord           
;;-------------- ------------------ ------------------
A                701983.866         452122.108        
B                701950.218         452147.094        
C                701890.669         452188.255        
D                701840.033         452187.646        
E                701802.054         452190.677        
F                701781.831         452197.022        
G                701786.125         452298.197        
H                701794.896         452309.355        
I                701805.333         452323.448        
J                701810.698         452332.318        
K                701809.904         452348.148        
L                701808.037         452380.042        
M                701717.752         452435.444        
N                701688.236         452458.114        
O                701629.572         452465.535        
P                701609.011         452468.141        
Q                701579.217         452465.345        
R                701549.074         452464.857        
S                701539.123         452467.477        
OUTFALL          702192.263         451981.914        
T                701485.911         452532.283        

[VERTICES]
;;Link           X-Coord            Y-Coord           
;;-------------- ------------------ ------------------
1                701993.823         452114.714        
1                702040.890         452077.525        
1                702089.878         452026.421        
10               701810.775         452330.796        
12               701811.436         452378.268        
12               701816.847         452368.529        
12               701809.471         452356.773        
13               701715.264         452418.387        
13               701749.431         452410.625        
14               701720.539         452454.559        
15               701669.319         452460.195        
16               701620.293         452466.782        
17               701605.683         452468.542        
18               701557.884         452462.767        
19               701539.880         452467.037        
3                701894.760         452187.197        
3                701901.436         452183.319        
4                701844.775         452187.237        
4                701849.040         452187.066        
4                701862.756         452186.935        
4                701871.371         452193.226        
5                701807.530         452190.421        
6                701786.574         452191.386        
7                701769.015         452277.091        
7                701757.289         452257.672        
7                701756.850         452234.099        
7                701761.410         452225.318        
7                701767.109         452216.112        
7                701774.124         452206.642        
7                701780.963         452198.049        
8                701792.010         452305.458        
20               701487.596         452526.319        
20               701490.436         452517.853        
20               701493.067         452511.187        
20               701500.930         452494.720        
20               701504.255         452487.755        
20               701537.106         452468.650        

[LABELS]
;;X-Coord          Y-Coord            Label           
701281.188         452451.568         "Force Main Model" "" "Arial" 24 1 1

