[TITLE]
;;Project Title/Notes

[OPTIONS]
;;Option             Value
FLOW_UNITS           GPM
INFILTRATION         HORTON
FLOW_ROUTING         DYNWAVE
LINK_OFFSETS         DEPTH
MIN_SLOPE            0
ALLOW_PONDING        YES
SKIP_STEADY_STATE    NO

START_DATE           12/12/2018
START_TIME           00:00:00
REPORT_START_DATE    12/12/2018
REPORT_START_TIME    00:00:00
END_DATE             12/13/2018
END_TIME             00:00:00
SWEEP_START          01/01
SWEEP_END            12/31
DRY_DAYS             5.000000
REPORT_STEP          00:01:00
WET_STEP             00:01:00
DRY_STEP             00:15:00
ROUTING_STEP         0:00:05 

INERTIAL_DAMPING     NONE
NORMAL_FLOW_LIMITED  BOTH
FORCE_MAIN_EQUATION  H-W
VARIABLE_STEP        0.75
LENGTHENING_STEP     5
MIN_SURFAREA         0
MAX_TRIALS           8
HEAD_TOLERANCE       0.000100
SYS_FLOW_TOL         5
LAT_FLOW_TOL         5
MINIMUM_STEP         0
THREADS              1

[EVAPORATION]
;;Data Source    Parameters
;;-------------- ----------------
CONSTANT         0.0
DRY_ONLY         NO

[JUNCTIONS]
;;Name           Elevation  MaxDepth   InitDepth  SurDepth   Aponded   
;;-------------- ---------- ---------- ---------- ---------- ----------
N1               156.150000 6.910000   0.000000   0.000000   0.000000  
N10              146.360000 14.170000  0.000000   0.000000   0.000000  
N100             157.460000 7.800000   0.000000   0.000000   0.000000  
N101             161.480000 10.520000  0.000000   0.000000   0.000000  
N102             163.610000 5.000000   0.000000   0.000000   0.000000  
N103             161.310000 6.990000   0.000000   0.000000   0.000000  
N104             160.850000 6.540000   0.000000   0.000000   0.000000  
N105             151.970000 10.700000  0.000000   0.000000   0.000000  
N106             154.630000 5.900000   0.000000   0.000000   0.000000  
N107             153.270000 8.730000   0.000000   0.000000   0.000000  
N108             154.240000 7.600000   0.000000   0.000000   0.000000  
N109             166.130000 6.270000   0.000000   0.000000   0.000000  
N11              144.550000 17.930000  0.000000   0.000000   0.000000  
N110             167.100000 5.300000   0.000000   0.000000   0.000000  
N111             168.180000 6.820000   0.000000   0.000000   0.000000  
N112             169.000000 4.600000   0.000000   0.000000   0.000000  
N113             167.900000 2.500000   0.000000   0.000000   0.000000  
N114             170.390000 4.810000   0.000000   0.000000   0.000000  
N115             104.710000 8.550000   0.000000   0.000000   0.000000  
N116             173.760000 5.100000   0.000000   0.000000   0.000000  
N117             169.030000 7.900000   0.000000   0.000000   0.000000  
N118             127.100000 1.900000   0.000000   0.000000   0.000000  
N119             121.580000 8.420000   0.000000   0.000000   0.000000  
N12              157.400000 9.290000   0.000000   0.000000   0.000000  
N120             102.250000 3.750000   0.000000   500.000000 0.000000  
N121             105.500000 4.500000   0.000000   500.000000 0.000000  
N122             97.500000  5.500000   0.000000   500.000000 0.000000  
N123             153.000000 5.000000   0.000000   500.000000 0.000000  
N124             149.000000 5.000000   0.000000   0.000000   0.000000  
N13              158.970000 11.790000  0.000000   0.000000   0.000000  
N14              166.050000 7.950000   0.000000   0.000000   0.000000  
N15              167.450000 7.790000   0.000000   0.000000   0.000000  
N16              169.200000 6.890000   0.000000   0.000000   0.000000  
N17              171.000000 7.330000   0.000000   0.000000   0.000000  
N18              163.210000 10.360000  0.000000   0.000000   0.000000  
N19              166.540000 7.290000   0.000000   0.000000   0.000000  
N2               154.970000 9.030000   0.000000   0.000000   0.000000  
N20              167.710000 8.290000   0.000000   0.000000   0.000000  
N21              164.200000 9.800000   0.000000   0.000000   0.000000  
N22              165.310000 7.790000   0.000000   0.000000   0.000000  
N23              163.100000 6.910000   0.000000   0.000000   0.000000  
N24              165.550000 6.730000   0.000000   0.000000   0.000000  
N25              151.200000 6.870000   0.000000   0.000000   0.000000  
N26              163.400000 6.790000   0.000000   0.000000   0.000000  
N27              164.650000 6.710000   0.000000   0.000000   0.000000  
N28              161.380000 6.620000   0.000000   0.000000   0.000000  
N29              158.000000 10.000000  0.000000   0.000000   0.000000  
N3               152.700000 9.850000   0.000000   0.000000   0.000000  
N30              154.650000 13.560000  0.000000   0.000000   0.000000  
N31              162.000000 10.000000  0.000000   0.000000   0.000000  
N32              152.500000 9.230000   0.000000   0.000000   0.000000  
N33              136.800000 8.180000   0.000000   0.000000   0.000000  
N34              110.260000 7.740000   0.000000   0.000000   0.000000  
N35              103.870000 7.630000   0.000000   0.000000   0.000000  
N36              101.950000 8.050000   0.000000   0.000000   0.000000  
N37              118.000000 8.080000   0.000000   0.000000   0.000000  
N38              100.530000 10.270000  0.000000   0.000000   0.000000  
N39              98.630000  12.470000  0.000000   0.000000   0.000000  
N4               165.300000 6.700000   0.000000   0.000000   0.000000  
N40              110.400000 6.940000   0.000000   0.000000   0.000000  
N41              124.100000 10.450000  0.000000   0.000000   0.000000  
N42              144.400000 9.970000   0.000000   0.000000   0.000000  
N43              147.450000 12.840000  0.000000   0.000000   0.000000  
N44              150.600000 10.360000  0.000000   0.000000   0.000000  
N45              152.700000 7.950000   0.000000   0.000000   0.000000  
N46              154.800000 9.320000   0.000000   0.000000   0.000000  
N47              157.400000 11.490000  0.000000   0.000000   0.000000  
N48              163.900000 6.740000   0.000000   0.000000   0.000000  
N49              161.600000 6.720000   0.000000   0.000000   0.000000  
N5               150.440000 12.570000  0.000000   0.000000   0.000000  
N50              160.850000 6.490000   0.000000   0.000000   0.000000  
N51              142.600000 9.980000   0.000000   0.000000   0.000000  
N52              158.000000 8.000000   0.000000   0.000000   0.000000  
N53              155.000000 7.700000   0.000000   0.000000   0.000000  
N54              151.750000 7.440000   0.000000   0.000000   0.000000  
N55              123.950000 12.740000  0.000000   0.000000   0.000000  
N56              118.000000 10.540000  0.000000   0.000000   0.000000  
N57              111.000000 11.480000  0.000000   0.000000   0.000000  
N58              160.650000 6.890000   0.000000   0.000000   0.000000  
N59              156.600000 6.740000   0.000000   0.000000   0.000000  
N6               159.000000 9.000000   0.000000   0.000000   0.000000  
N60              126.400000 6.710000   0.000000   0.000000   0.000000  
N61              122.000000 8.030000   0.000000   0.000000   0.000000  
N62              104.500000 6.890000   0.000000   0.000000   0.000000  
N63              138.000000 7.200000   0.000000   0.000000   0.000000  
N64              150.000000 7.100000   0.000000   0.000000   0.000000  
N65              157.650000 6.910000   0.000000   0.000000   0.000000  
N66              161.300000 6.700000   0.000000   0.000000   0.000000  
N67              153.500000 6.900000   0.000000   0.000000   0.000000  
N68              155.850000 6.700000   0.000000   0.000000   0.000000  
N69              97.350000  6.840000   0.000000   0.000000   0.000000  
N7               162.120000 7.880000   0.000000   0.000000   0.000000  
N70              94.800000  9.200000   0.000000   0.000000   0.000000  
N71              99.000000  7.380000   0.000000   0.000000   0.000000  
N72              112.000000 7.140000   0.000000   0.000000   0.000000  
N73              124.700000 6.940000   0.000000   0.000000   0.000000  
N74              103.000000 7.870000   0.000000   0.000000   0.000000  
N75              122.400000 6.940000   0.000000   0.000000   0.000000  
N76              131.650000 6.940000   0.000000   0.000000   0.000000  
N77              143.300000 8.210000   0.000000   0.000000   0.000000  
N78              149.500000 6.900000   0.000000   0.000000   0.000000  
N79              159.900000 6.940000   0.000000   0.000000   0.000000  
N8               165.250000 6.750000   0.000000   0.000000   0.000000  
N80              163.600000 14.630000  0.000000   0.000000   0.000000  
N81              167.200000 6.680000   0.000000   0.000000   0.000000  
N82              150.500000 7.800000   0.000000   0.000000   0.000000  
N83              154.000000 9.110000   0.000000   0.000000   0.000000  
N84              161.000000 8.520000   0.000000   0.000000   0.000000  
N85              167.950000 12.050000  0.000000   0.000000   0.000000  
N86              169.250000 10.190000  0.000000   0.000000   0.000000  
N87              170.650000 6.910000   0.000000   0.000000   0.000000  
N88              172.650000 6.990000   0.000000   0.000000   0.000000  
N89              150.000000 4.230000   0.000000   0.000000   0.000000  
N9               148.480000 13.520000  0.000000   0.000000   0.000000  
N90              145.910000 8.900000   0.000000   0.000000   0.000000  
N91              131.290000 14.550000  0.000000   0.000000   0.000000  
N92              130.520000 12.470000  0.000000   0.000000   0.000000  
N93              133.520000 6.840000   0.000000   0.000000   0.000000  
N94              134.720000 6.200000   0.000000   0.000000   0.000000  
N95              145.800000 7.200000   0.000000   0.000000   0.000000  
N96              148.940000 3.600000   0.000000   0.000000   0.000000  
N97              142.140000 7.300000   0.000000   0.000000   0.000000  
N98              135.520000 4.700000   0.000000   0.000000   0.000000  
N99              153.460000 5.800000   0.000000   0.000000   0.000000  

[OUTFALLS]
;;Name           Elevation  Type       Stage Data       Gated    Route To        
;;-------------- ---------- ---------- ---------------- -------- ----------------
OUTFALL          145.000000 FREE                        NO                       

[STORAGE]
;;Name           Elev.    MaxDepth   InitDepth  Shape      Curve Name/Params            N/A      Fevap    Psi      Ksat     IMD     
;;-------------- -------- ---------- ----------- ---------- ---------------------------- -------- --------          -------- --------
LS1              93.550000 12.000000  0.000000   FUNCTIONAL 0.000000  0.000000  0.000000 0.000000 0.000000
LS2              98.500000 11.000000  0.000000   FUNCTIONAL 0.000000  0.000000  0.000000 0.000000 0.000000
LS3              90.050000 12.000000  0.000000   FUNCTIONAL 0.000000  0.000000  0.000000 0.000000 0.000000
LS4              139.000000 20.000000  0.000000   FUNCTIONAL 0.000000  0.000000  0.000000 0.000000 0.000000

[CONDUITS]
;;Name           From Node        To Node          Length     Roughness  InOffset   OutOffset  InitFlow   MaxFlow   
;;-------------- ---------------- ---------------- ---------- ---------- ---------- ---------- ---------- ----------
C1               N4               N5               300.028934 0.012000   0.000000   5.860000   0.000000   0.000000  
C10              N10              N11              288.000000 0.012000   0.000000   0.000000   0.000000   0.000000  
C100             N105             N97              269.000000 0.012000   0.000000   -0.040000  0.000000   0.000000  
C101             N106             N107             148.000000 0.012000   0.000000   0.200000   0.000000   0.000000  
C102             N107             N96              256.000000 0.012000   0.000000   0.060000   0.000000   0.000000  
C103             N109             N22              89.786062  0.012000   0.000000   0.100000   0.000000   0.000000  
C104             N110             N109             145.500000 0.012000   0.000000   0.100000   0.000000   0.000000  
C105             N112             N20              234.900000 0.012000   0.000000   0.200000   0.000000   0.000000  
C106             N111             N110             130.000000 0.012000   0.000000   0.200000   0.000000   0.000000  
C107             N113             N110             120.900000 0.012000   0.000000   0.200000   0.000000   0.000000  
C108             N114             N110             498.800000 0.012000   0.000000   0.200000   0.000000   0.000000  
C109             N115             N35              213.260000 0.012000   0.000000   -0.010000  0.000000   0.000000  
C11              N12              N11              225.290000 0.012000   0.000000   1.450000   0.000000   0.000000  
C110             N117             N111             142.180000 0.012000   0.000000   0.650000   0.000000   0.000000  
C111             N116             N17              378.700000 0.012000   0.000000   0.100000   0.000000   0.000000  
C112             N91              N118             455.341854 0.012000   0.000000   0.100000   0.000000   0.000000  
C113             N118             N119             316.000000 0.012000   0.000000   3.940000   0.000000   0.000000  
C114             N119             N37              72.000000  0.012000   0.000000   0.200000   0.000000   0.000000  
C115             N51              N33              401.480488 0.012000   0.000000   0.200000   0.000000   0.000000  
C116             N108             N107             152.581945 0.012000   0.000000   0.200000   0.000000   0.000000  
C117             N70              LS3              53.410000  0.012000   0.000000   4.350000   0.000000   0.000000  
C118             N62              LS2              48.000000  0.012000   0.000000   5.000000   0.000000   0.000000  
C119             N39              LS1              57.497093  0.012000   0.000000   4.630000   0.000000   0.000000  
C12              N13              N12              231.040000 0.012000   0.000000   0.200000   0.000000   0.000000  
C120             N120             N101             2348.577435 0.012000   0.000000   0.000000   0.000000   0.000000  
C121             N121             N1               1773.635657 0.012000   0.000000   1.200000   0.000000   0.000000  
C122             N122             N1               2122.437691 0.012000   0.000000   1.200000   0.000000   0.000000  
C123             N123             N124             40.107406  0.012000   0.000000   0.200000   0.000000   0.000000  
C124             N124             OUTFALL          26.077811  0.012000   0.000000   0.000000   0.000000   0.000000  
C13              N14              N13              235.100000 0.012000   0.000000   0.200000   0.000000   0.000000  
C14              N15              N14              210.000000 0.012000   0.000000   0.200000   0.000000   0.000000  
C15              N16              N15              275.000000 0.012000   0.000000   0.200000   0.000000   0.000000  
C16              N17              N16              285.000000 0.012000   0.000000   0.230000   0.000000   0.000000  
C17              N101             N13              308.010000 0.012000   0.000000   0.200000   0.000000   0.000000  
C18              N18              N101             205.000000 0.012000   0.000000   0.200000   0.000000   0.000000  
C19              N19              N18              115.010000 0.012000   0.000000   2.460000   0.000000   0.000000  
C2               N3               N5               376.942628 0.012000   0.040000   0.200000   0.000000   0.000000  
C20              N20              N19              335.010000 0.012000   0.000000   0.200000   0.000000   0.000000  
C21              N21              N18              335.010000 0.012000   0.000000   0.200000   0.000000   0.000000  
C22              N22              N21              212.500000 0.012000   0.000000   0.100000   0.000000   0.000000  
C23              N23              N13              300.010000 0.012000   0.000000   1.880000   0.000000   0.000000  
C24              N24              N23              270.010000 0.012000   0.000000   0.200000   0.000000   0.000000  
C25              N25              N11              214.010000 0.012000   0.000000   5.050000   0.000000   0.000000  
C26              N26              N25              370.190000 0.012000   0.000000   0.200000   0.000000   0.000000  
C27              N27              N28              410.010000 0.012000   0.000000   0.200000   0.000000   0.000000  
C28              N28              N29              420.010000 0.012000   0.000000   0.200000   0.000000   0.000000  
C29              N29              N30              415.010000 0.012000   0.200000   0.200000   0.000000   0.000000  
C3               N2               N3               348.331561 0.012000   0.000000   0.240000   0.000000   0.000000  
C30              N31              N30              235.110000 0.012000   0.000000   0.200000   0.000000   0.000000  
C31              N30              N32              258.010000 0.012000   0.000000   0.200000   0.000000   0.000000  
C32              N32              N33              258.590000 0.012000   0.000000   0.200000   0.000000   0.000000  
C33              N33              N119             326.000000 0.012000   0.000000   0.000000   0.000000   0.000000  
C34              N37              N34              256.900000 0.012000   0.000000   0.200000   0.000000   0.000000  
C35              N34              N35              235.090000 0.012000   0.000000   0.200000   0.000000   0.000000  
C36              N35              N36              228.530000 0.012000   0.000000   0.200000   0.000000   0.000000  
C37              N36              N38              162.960000 0.012000   0.000000   0.200000   0.000000   0.000000  
C38              N38              N39              213.330000 0.012000   0.000000   0.200000   0.000000   0.000000  
C39              N40              N39              187.500000 0.012000   0.000000   0.200000   0.000000   0.000000  
C4               N1               N2               182.918565 0.012000   0.000000   0.200000   0.000000   0.000000  
C40              N41              N40              400.230000 0.012000   0.000000   0.200000   0.000000   0.000000  
C41              N42              N41              279.720000 0.012000   0.000000   0.200000   0.000000   0.000000  
C42              N43              N42              278.930000 0.012000   0.000000   0.200000   0.000000   0.000000  
C43              N44              N43              395.010000 0.012000   0.000000   0.200000   0.000000   0.000000  
C44              N45              N44              250.010000 0.012000   0.000000   0.200000   0.000000   0.000000  
C45              N46              N45              255.010000 0.012000   0.000000   0.200000   0.000000   0.000000  
C46              N47              N44              250.020000 0.012000   0.000000   3.650000   0.000000   0.000000  
C47              N48              N47              150.130000 0.012000   0.000000   0.200000   0.000000   0.000000  
C48              N49              N47              400.010000 0.012000   0.000000   1.200000   0.000000   0.000000  
C49              N50              N47              430.010000 0.012000   0.000000   0.200000   0.000000   0.000000  
C5               N6               N1               207.020000 0.012000   0.000000   0.200000   0.000000   0.000000  
C50              N52              N53              220.020000 0.012000   0.000000   0.200000   0.000000   0.000000  
C51              N53              N54              403.330000 0.012000   0.000000   0.200000   0.000000   0.000000  
C52              N54              N55              436.990000 0.012000   0.000000   0.200000   0.000000   0.000000  
C53              N55              N57              385.690000 0.012000   0.000000   0.200000   0.000000   0.000000  
C54              N58              N53              358.030000 0.012000   0.000000   1.000000   0.000000   0.000000  
C55              N59              N54              220.460000 0.012000   0.000000   0.200000   0.000000   0.000000  
C56              N60              N55              300.010000 0.012000   0.000000   0.200000   0.000000   0.000000  
C57              N61              N56              158.050000 0.012000   0.000000   0.200000   0.000000   0.000000  
C58              N56              N57              274.050000 0.012000   0.000000   0.200000   0.000000   0.000000  
C59              N57              N62              275.720000 0.012000   0.000000   0.200000   0.000000   0.000000  
C6               N8               N7               390.010000 0.012000   0.000000   0.200000   0.000000   0.000000  
C60              N63              N61              284.580000 0.012000   0.000000   0.200000   0.000000   0.000000  
C61              N64              N63              281.750000 0.012000   0.000000   0.200000   0.000000   0.000000  
C62              N65              N64              237.120000 0.012000   0.000000   0.200000   0.000000   0.000000  
C63              N66              N65              215.030000 0.012000   0.000000   0.200000   0.000000   0.000000  
C64              N67              N64              230.020000 0.012000   0.000000   0.200000   0.000000   0.000000  
C65              N68              N67              230.010000 0.012000   0.000000   0.200000   0.000000   0.000000  
C66              N69              N70              338.010000 0.012000   0.000000   0.200000   0.000000   0.000000  
C67              N71              N70              122.070000 0.012000   0.000000   0.200000   0.000000   0.000000  
C68              N72              N71              267.810000 0.012000   0.000000   0.200000   0.000000   0.000000  
C69              N73              N72              267.790000 0.012000   0.000000   0.200000   0.000000   0.000000  
C7               N7               N6               390.010000 0.012000   0.000000   0.200000   0.000000   0.000000  
C70              N74              N71              179.190000 0.012000   0.000000   0.200000   0.000000   0.000000  
C71              N75              N74              367.500000 0.012000   0.000000   0.200000   0.000000   0.000000  
C72              N76              N75              184.220000 0.012000   0.000000   0.200000   0.000000   0.000000  
C73              N80              N79              310.320000 0.012000   0.000000   0.200000   0.000000   0.000000  
C74              N79              N78              207.510000 0.012000   0.000000   0.200000   0.000000   0.000000  
C75              N78              N77              103.170000 0.012000   0.000000   0.200000   0.000000   0.000000  
C76              N77              N76              275.240000 0.012000   0.000000   0.200000   0.000000   0.000000  
C77              N81              N80              455.010000 0.012000   0.000000   0.200000   0.000000   0.000000  
C78              N88              N87              150.010000 0.012000   0.000000   0.200000   0.000000   0.000000  
C79              N87              N86              160.000000 0.012000   0.000000   0.200000   0.000000   0.000000  
C8               N5               N9               314.000000 0.012000   0.000000   0.200000   0.000000   0.000000  
C80              N86              N85              146.000000 0.012000   0.000000   0.200000   0.000000   0.000000  
C81              N85              N84              139.160000 0.012000   0.000000   0.200000   0.000000   0.000000  
C82              N84              N83              129.680000 0.012000   0.000000   0.200000   0.000000   0.000000  
C83              N83              N82              238.020000 0.012000   0.000000   0.200000   0.000000   0.000000  
C84              N82              N77              240.100000 0.012000   0.000000   0.200000   0.000000   0.000000  
C85              N89              N78              50.000000  0.012000   0.000000   0.200000   0.000000   0.000000  
C86              N11              LS4              93.227567  0.012000   0.000000   5.000000   0.000000   0.000000  
C87              N90              N91              262.000000 0.012000   0.000000   0.150000   0.000000   0.000000  
C88              N92              N91              147.910000 0.012000   1.800000   0.150000   0.000000   0.000000  
C89              N95              N92              231.400000 0.012000   0.000000   1.900000   0.000000   0.000000  
C9               N9               N10              343.010000 0.012000   0.000000   0.200000   0.000000   0.000000  
C90              N97              N93              223.590000 0.012000   0.000000   0.100000   0.000000   0.000000  
C91              N93              N92              274.000000 0.012000   0.000000   1.900000   0.000000   0.000000  
C92              N94              N93              268.793960 0.012000   0.000000   0.100000   0.000000   0.000000  
C93              N98              N94              90.950000  0.012000   0.000000   0.300000   0.000000   0.000000  
C94              N96              N94              229.830000 0.012000   0.000000   0.300000   0.000000   0.000000  
C95              N100             N99              254.000000 0.012000   0.000000   0.100000   0.000000   0.000000  
C96              N99              N95              150.860000 0.012000   0.000000   0.100000   0.000000   0.000000  
C97              N102             N103             410.000000 0.012000   0.000000   0.100000   0.000000   0.000000  
C98              N103             N95              258.000000 0.012000   0.000000   0.100000   0.000000   0.000000  
C99              N104             N105             194.000000 0.012000   0.000000   0.100000   0.000000   0.000000  

[PUMPS]
;;Name           From Node        To Node          Pump Curve       Status   Sartup Shutoff 
;;-------------- ---------------- ---------------- ---------------- ------ -------- --------
LS1_PUMP1        LS1              N120             LS1_PUMP1        ON       4.000000 2.500000
LS1_PUMP2        LS1              N120             LS1_PUMP2        ON       4.500000 2.500000
LS2_PUMP1        LS2              N121             LS2_PUMP1        ON       4.000000 2.000000
LS2_PUMP2        LS2              N121             LS2_PUMP2        ON       5.000000 2.000000
LS3_PUMP1        LS3              N122             LS3_PUMP1        ON       3.000000 1.500000
LS3_PUMP2        LS3              N122             LS3_PUMP2        ON       3.500000 1.500000
LS4_PUMP1        LS4              N123             LS4_PUMP1        ON       5.000000 2.500000
LS4_PUMP2        LS4              N123             LS4_PUMP2        ON       6.000000 2.500000

[XSECTIONS]
;;Link           Shape        Geom1            Geom2      Geom3      Geom4      Barrels    Culvert   
;;-------------- ------------ ---------------- ---------- ---------- ---------- ---------- ----------
C1               CIRCULAR     0.666667         0.000000   0.000000   0.000000   1          0         
C10              CIRCULAR     0.833333         0.000000   0.000000   0.000000   1          0         
C100             CIRCULAR     0.666667         0.000000   0.000000   0.000000   1          0         
C101             CIRCULAR     0.666667         0.000000   0.000000   0.000000   1          0         
C102             CIRCULAR     0.666667         0.000000   0.000000   0.000000   1          0         
C103             CIRCULAR     0.666667         0.000000   0.000000   0.000000   1          0         
C104             CIRCULAR     0.666667         0.000000   0.000000   0.000000   1          0         
C105             CIRCULAR     0.666667         0.000000   0.000000   0.000000   1          0         
C106             CIRCULAR     0.666667         0.000000   0.000000   0.000000   1          0         
C107             CIRCULAR     0.666667         0.000000   0.000000   0.000000   1          0         
C108             CIRCULAR     0.666667         0.000000   0.000000   0.000000   1          0         
C109             CIRCULAR     0.666667         0.000000   0.000000   0.000000   1          0         
C11              CIRCULAR     0.833333         0.000000   0.000000   0.000000   1          0         
C110             CIRCULAR     0.666667         0.000000   0.000000   0.000000   1          0         
C111             CIRCULAR     0.666667         0.000000   0.000000   0.000000   1          0         
C112             CIRCULAR     0.666667         0.000000   0.000000   0.000000   1          0         
C113             CIRCULAR     0.666667         0.000000   0.000000   0.000000   1          0         
C114             CIRCULAR     0.666667         0.000000   0.000000   0.000000   1          0         
C115             CIRCULAR     0.666667         0.000000   0.000000   0.000000   1          0         
C116             CIRCULAR     0.666667         0.000000   0.000000   0.000000   1          0         
C117             CIRCULAR     0.666667         0.000000   0.000000   0.000000   1          0         
C118             CIRCULAR     0.666667         0.000000   0.000000   0.000000   1          0         
C119             CIRCULAR     0.666667         0.000000   0.000000   0.000000   1          0         
C12              CIRCULAR     0.833333         0.000000   0.000000   0.000000   1          0         
C120             FORCE_MAIN   0.333333         120.000000 0.000000   0.000000   1          0         
C121             FORCE_MAIN   0.333333         120.000000 0.000000   0.000000   1          0         
C122             FORCE_MAIN   0.333333         120.000000 0.000000   0.000000   1          0         
C123             FORCE_MAIN   0.500000         120.000000 0.000000   0.000000   1          0         
C124             CIRCULAR     0.500000         0.000000   0.000000   0.000000   1          0         