[TITLE]
;;Project Title/Notes

[OPTIONS]
;;Option             Value
FLOW_UNITS           CFS
INFILTRATION         HORTON
FLOW_ROUTING         DYNWAVE
LINK_OFFSETS         DEPTH
MIN_SLOPE            0
ALLOW_PONDING        NO
SKIP_STEADY_STATE    NO

IGNORE_SNOWMELT      YES
IGNORE_GROUNDWATER   YES
IGNORE_QUALITY       YES
START_DATE           01/11/1983
START_TIME           00:00:00
REPORT_START_DATE    01/11/1983
REPORT_START_TIME    00:00:00
END_DATE             01/11/1983
END_TIME             23:00:00
SWEEP_START          01/01
SWEEP_END            12/31
DRY_DAYS             5.000000
REPORT_STEP          00:05:00
WET_STEP             01:00:00
DRY_STEP             23:00:00
ROUTING_STEP         0:00:07 

INERTIAL_DAMPING     PARTIAL
NORMAL_FLOW_LIMITED  SLOPE
FORCE_MAIN_EQUATION  H-W
VARIABLE_STEP        0.75
LENGTHENING_STEP     7
MIN_SURFAREA         0
MAX_TRIALS           4
HEAD_TOLERANCE       0.005000
SYS_FLOW_TOL         5
LAT_FLOW_TOL         5
MINIMUM_STEP         0.5
THREADS              1

[EVAPORATION]
;;Data Source    Parameters
;;-------------- ----------------
CONSTANT         0.000000
DRY_ONLY         NO

[RAINGAGES]
;;Name           Format    Interval SCF      Source    
;;-------------- --------- ------ ------ ----------
; New Raingage
RAINGAGE-1       INTENSITY 0.083333 1.000000 TIMESERIES HALLERLAKE78    

[JUNCTIONS]
;;Name           Elevation  MaxDepth   InitDepth  SurDepth   Aponded   
;;-------------- ---------- ---------- ---------- ---------- ----------
; SMH2195W12
JCT-1370         -3.990000  19.670000  0.000000   0.000000   0.000000  
; LW_2095S07
LW_2095S07       25.330000  24.290000  0.000000   0.000000   0.000000  
; NID7720
NID7720          -10.000000 17.000000  0.000000   0.000000   0.000000  
; SMH2095S05
SMH2095S05       29.620000  20.000000  0.000000   0.000000   0.000000  
; SMH2095S15
SMH2095S15       16.500000  23.970000  0.000000   0.000000   0.000000  
; SMH2095S19
SMH2095S19       15.720000  23.900000  0.000000   0.000000   0.000000  
; SMH2195V01
SMH2195V01       22.880000  20.240000  0.000000   0.000000   0.000000  
; SMH2195V04
SMH2195V04       17.630000  17.990000  0.000000   0.000000   0.000000  
; SMH2195V06
SMH2195V06       15.030000  21.590000  0.000000   0.000000   0.000000  
; SMH2195V07
SMH2195V07       14.160000  27.460000  0.000000   0.000000   0.000000  
; SMH2195V11
SMH2195V11       13.820000  25.800000  0.000000   0.000000   0.000000  
; SMH2195V12
SMH2195V12       10.320000  24.160000  0.000000   0.000000   0.000000  
; SMH2195V13
SMH2195V13       9.710000   24.410000  0.000000   0.000000   0.000000  
; SMH2195W04
SMH2195W04       1.530000   16.290000  0.000000   0.000000   0.000000  
; SMH2195W08
SMH2195W08       0.200000   16.470000  0.000000   0.000000   0.000000  
; SMH2195W12
SMH2195W12       -3.990000  19.670000  0.000000   0.000000   0.000000  
; SMH2195W13
SMH2195W13       -5.290000  18.720000  0.000000   0.000000   0.000000  
; SPMH_2195W11
SPMH_2195W11     -3.080000  19.360000  0.000000   0.000000   0.000000  

[OUTFALLS]
;;Name           Elevation  Type       Stage Data       Gated    Route To        
;;-------------- ---------- ---------- ---------------- -------- ----------------
; SR04
OFALL-30         -10.000000 FREE                        NO                       
; SR04
OFALL-90         -2.830000  FREE                        NO                       

[DIVIDERS]
;;Name           Elevation  Diverted Link    Type       Parameters
;;-------------- ---------- ---------------- ---------- ----------
; Climate Set: BASE, New Divider
DIV-10           -3.990000  SML2195W0D       CUTOFF     10.000000  18.990000  0.000000   300.000000 0.000000  

[CONDUITS]
;;Name           From Node        To Node          Length     Roughness  InOffset   OutOffset  InitFlow   MaxFlow   
;;-------------- ---------------- ---------------- ---------- ---------- ---------- ---------- ---------- ----------
; Splitted conduit
CDT-1899         JCT-1370         SMH2195W13       19.698000  0.013000   0.000000   0.020000   0.000000   0.000000  
; SML2195W13
CDT-21           NID7720          OFALL-30         7.054000   0.013000   0.000000   0.000000   0.000000   0.000000  
; SML2095S05
SML2095S05       SMH2095S05       LW_2095S07       9.321000   0.013000   0.000000   3.500000   0.000000   0.000000  
; SML2095S15
SML2095S15       SMH2095S15       SMH2095S19       107.051000 0.013000   0.000000   0.100000   0.000000   0.000000  
; SML2095S19
SML2095S19       SMH2095S19       SMH2195V06       355.384000 0.013000   0.000000   0.000000   0.000000   0.000000  
; SML2095S7A
SML2095S7A       LW_2095S07       SMH2095S15       737.894000 0.013000   3.500000   0.000000   0.000000   0.000000  
; SML2195V04
SML2195V04       SMH2195V04       SMH2195V13       336.044000 0.013000   0.000000   1.940000   0.000000   0.000000  
; SML2195V06
SML2195V06       SMH2195V06       SMH2195V07       132.133000 0.013000   0.140000   0.060000   0.000000   0.000000  
; SML2195V07
SML2195V07       SMH2195V07       SMH2195V11       47.762000  0.013000   0.000000   0.300000   0.000000   0.000000  
; SML2195V11
SML2195V11       SMH2195V11       SMH2195V12       140.998000 0.013000   0.000000   0.100000   0.000000   0.000000  
; SML2195V12
SML2195V12       SMH2195V12       SMH2195V13       25.587000  0.013000   0.000000   0.000000   0.000000   0.000000  
; SML2195V13
SML2195V13       SMH2195V13       SMH2195W08       504.270000 0.013000   0.000000   0.000000   0.000000   0.000000  
; SML2195V1B
SML2195V1B       SMH2195V01       SMH2195V04       479.792000 0.013000   3.820000   0.100000   0.000000   0.000000  
; SML2195W08
SML2195W08       SMH2195W08       SPMH_2195W11     20.837000  0.013000   0.000000   1.580000   0.000000   0.000000  
; SML2195W0C
SML2195W0C       DIV-10           SMH2195W12       22.569000  0.013000   0.000000   0.000000   0.000000   0.000000  
; SML2195W0D
SML2195W0D       DIV-10           OFALL-90         38.952000  0.013000   0.000000   0.000000   0.000000   100.000000
; SML2195W11
SML2195W11       SPMH_2195W11     DIV-10           58.000000  0.013000   1.580000   0.000000   0.000000   0.000000  
; SML2195W13
SML2195W13       SMH2195W13       NID7720          136.418000 0.013000   0.000000   0.000000   0.000000   0.000000  
; SML2195W4A
SML2195W4A       SMH2195W04       SMH2195W08       382.917000 0.013000   0.000000   0.000000   0.000000   0.000000  

[WEIRS]
;;Name           From Node        To Node          Type         CrestHt    Qcoeff     Gated    EndCon   EndCoeff   Surcharge  RoadWidth  RoadSurf  
;;-------------- ---------------- ---------------- ------------ ---------- ---------- -------- -------- ---------- ---------- ---------- ----------
; New Weir
WEIR-17          SMH2195W12       JCT-1370         TRANSVERSE   13.000000  0.000000   NO       2        3.000000   NO        

[XSECTIONS]
;;Link           Shape        Geom1            Geom2      Geom3      Geom4      Barrels    Culvert   
;;-------------- ------------ ---------------- ---------- ---------- ---------- ---------- ----------
CDT-1899         CIRCULAR     3.500000         0.000000   0.000000   0.000000   1          0         
CDT-21           CIRCULAR     3.500000         0.000000   0.000000   0.000000   1          0         
SML2095S05       CIRCULAR     2.500000         0.000000   0.000000   0.000000   1          0         
SML2095S15       CIRCULAR     3.000000         0.000000   0.000000   0.000000   1          0         
SML2095S19       CIRCULAR     3.500000         0.000000   0.000000   0.000000   1          0         
SML2095S7A       CIRCULAR     2.500000         0.000000   0.000000   0.000000   1          0         
SML2195V04       CIRCULAR     2.500000         0.000000   0.000000   0.000000   1          0         
SML2195V06       CIRCULAR     3.500000         0.000000   0.000000   0.000000   1          0         
SML2195V07       CIRCULAR     3.500000         0.000000   0.000000   0.000000   1          0         
SML2195V11       CIRCULAR     3.500000         0.000000   0.000000   0.000000   1          0         
SML2195V12       CIRCULAR     3.500000         0.000000   0.000000   0.000000   1          0         
SML2195V13       CIRCULAR     3.500000         0.000000   0.000000   0.000000   1          0         
SML2195V1B       CIRCULAR     2.500000         0.000000   0.000000   0.000000   1          0         
SML2195W08       CIRCULAR     3.500000         0.000000   0.000000   0.000000   1          0         
SML2195W0C       CIRCULAR     3.500000         0.000000   0.000000   0.000000   1          0         
SML2195W0D       CIRCULAR     2.000000         0.000000   0.000000   0.000000   1          0         
SML2195W11       CIRCULAR     3.500000         0.000000   0.000000   0.000000   1          0         
SML2195W13       CIRCULAR     3.500000         0.000000   0.000000   0.000000   1          0         
SML2195W4A       CIRCULAR     1.250000         0.000000   0.000000   0.000000   1          0         
WEIR-17          RECT_OPEN    3.000000         6.000000   0.000000   0.000000  

[LOSSES]
;;Link           Kentry     Kexit      Kavg       Flap Gate  Seepage   
;;-------------- ---------- ---------- ---------- ---------- ----------
CDT-1899         0.000000   0.000000   0.000000   NO         0.000000  
CDT-21           0.000000   0.000000   0.000000   NO         0.000000  
SML2095S05       0.000000   0.000000   0.000000   NO         0.000000  
SML2095S15       0.000000   0.000000   0.000000   NO         0.000000  
SML2095S19       0.000000   0.000000   0.000000   NO         0.000000  
SML2095S7A       0.000000   0.000000   0.000000   NO         0.000000  
SML2195V04       0.000000   0.000000   0.000000   NO         0.000000  
SML2195V06       0.000000   0.000000   0.000000   NO         0.000000  
SML2195V07       0.000000   0.000000   0.000000   NO         0.000000  
SML2195V11       0.000000   0.000000   0.000000   NO         0.000000  
SML2195V12       0.000000   0.000000   0.000000   NO         0.000000  
SML2195V13       0.000000   0.000000   0.000000   NO         0.000000  
SML2195V1B       0.000000   0.000000   0.000000   NO         0.000000  
SML2195W08       0.000000   0.000000   0.000000   NO         0.000000  
SML2195W0C       0.000000   0.000000   0.000000   NO         0.000000  
SML2195W0D       0.000000   0.000000   0.000000   NO         0.000000  
SML2195W11       0.000000   0.000000   0.000000   NO         0.000000  
SML2195W13       0.000000   0.000000   0.000000   NO         0.000000  
SML2195W4A       0.000000   0.000000   0.000000   NO         0.000000  

[CONTROLS]


[INFLOWS]
;;Node           Constituent      Time Series      Type     Mfactor  Sfactor  Baseline Pattern
;;-------------- ---------------- ---------------- -------- -------- -------- -------- --------
SMH2095S05       FLOW             ""               FLOW     1.0      1.000000 20.000000
SMH2195V01       FLOW             ""               FLOW     1.0      1.000000 20.000000

[DWF]
;;Node           Constituent      Baseline   Patterns  
;;-------------- ---------------- ---------- ----------
SMH2195V11       FLOW             0.067000   "EVR4" "" ""

[HYDROGRAPHS]
;;Hydrograph     Rain Gage/Month  Response R        T        K        Dmax     Drecov   Dinit   
;;-------------- ---------------- -------- -------- -------- -------- -------- -------- --------
NID1037_UH       RAINGAGE-1      
NID1037_UH       All              Short    0.000000 3.000000 3.000000 0.000000 0.000000 0.000000
NID1037_UH       All              Medium   0.000000 80.000000 5.000000 0.000000 0.000000 0.000000
NID1037_UH       All              Long     0.000000 900.000000 10.000000 0.000000 0.000000 0.000000
NID1582_UH       RAINGAGE-1      
NID1582_UH       All              Short    0.000000 3.000000 3.000000 0.000000 0.000000 0.000000
NID1582_UH       All              Medium   0.000000 80.000000 5.000000 0.000000 0.000000 0.000000
NID1582_UH       All              Long     0.000000 900.000000 10.000000 0.000000 0.000000 0.000000
NID1599_UH       RAINGAGE-1      
NID1599_UH       All              Short    0.000000 3.000000 3.000000 0.000000 0.000000 0.000000
NID1599_UH       All              Medium   0.000000 80.000000 5.000000 0.000000 0.000000 0.000000
NID1599_UH       All              Long     0.000000 900.000000 10.000000 0.000000 0.000000 0.000000
NID1630_UH       RAINGAGE-1      
NID1630_UH       All              Short    0.000000 3.000000 3.000000 0.000000 0.000000 0.000000
NID1630_UH       All              Medium   0.000000 80.000000 5.000000 0.000000 0.000000 0.000000
NID1630_UH       All              Long     0.000000 900.000000 10.000000 0.000000 0.000000 0.000000
NID1886_UH       RAINGAGE-1      
NID1886_UH       All              Short    0.000000 3.000000 3.000000 0.000000 0.000000 0.000000
NID1886_UH       All              Medium   0.000000 80.000000 5.000000 0.000000 0.000000 0.000000
NID1886_UH       All              Long     0.000000 900.000000 10.000000 0.000000 0.000000 0.000000
NID1931_UH       RAINGAGE-1      
NID1931_UH       All              Short    0.000000 3.000000 3.000000 0.000000 0.000000 0.000000
NID1931_UH       All              Medium   0.000000 80.000000 5.000000 0.000000 0.000000 0.000000
NID1931_UH       All              Long     0.000000 900.000000 10.000000 0.000000 0.000000 0.000000
NID1942_UH       RAINGAGE-1      
NID1942_UH       All              Short    0.000000 3.000000 3.000000 0.000000 0.000000 0.000000
NID1942_UH       All              Medium   0.000000 80.000000 5.000000 0.000000 0.000000 0.000000
NID1942_UH       All              Long     0.000000 900.000000 10.000000 0.000000 0.000000 0.000000
NID2212_UH       RAINGAGE-1      
NID2212_UH       All              Short    0.000000 3.000000 3.000000 0.000000 0.000000 0.000000
NID2212_UH       All              Medium   0.000000 80.000000 5.000000 0.000000 0.000000 0.000000
NID2212_UH       All              Long     0.000000 900.000000 10.000000 0.000000 0.000000 0.000000
NID2384_UH       RAINGAGE-1      
NID2384_UH       All              Short    0.000000 3.000000 3.000000 0.000000 0.000000 0.000000
NID2384_UH       All              Medium   0.000000 80.000000 5.000000 0.000000 0.000000 0.000000
NID2384_UH       All              Long     0.000000 900.000000 10.000000 0.000000 0.000000 0.000000
NID3108_UH       RAINGAGE-1      
NID3108_UH       All              Short    0.000000 3.000000 3.000000 0.000000 0.000000 0.000000
NID3108_UH       All              Medium   0.000000 80.000000 5.000000 0.000000 0.000000 0.000000
NID3108_UH       All              Long     0.000000 900.000000 10.000000 0.000000 0.000000 0.000000
NID3145_UH       RAINGAGE-1      
NID3145_UH       All              Short    0.000000 3.000000 3.000000 0.000000 0.000000 0.000000
NID3145_UH       All              Medium   0.000000 80.000000 5.000000 0.000000 0.000000 0.000000
NID3145_UH       All              Long     0.000000 900.000000 10.000000 0.000000 0.000000 0.000000
NID3223_UH       RAINGAGE-1      
NID3223_UH       All              Short    0.000000 3.000000 3.000000 0.000000 0.000000 0.000000
NID3223_UH       All              Medium   0.000000 80.000000 5.000000 0.000000 0.000000 0.000000
NID3223_UH       All              Long     0.000000 900.000000 10.000000 0.000000 0.000000 0.000000
NID3226_UH       RAINGAGE-1      
NID3226_UH       All              Short    0.000000 3.000000 3.000000 0.000000 0.000000 0.000000
NID3226_UH       All              Medium   0.000000 80.000000 5.000000 0.000000 0.000000 0.000000
NID3226_UH       All              Long     0.000000 900.000000 10.000000 0.000000 0.000000 0.000000
NID337_UH        RAINGAGE-1      
NID337_UH        All              Short    0.000000 3.000000 3.000000 0.000000 0.000000 0.000000
NID337_UH        All              Medium   0.000000 80.000000 5.000000 0.000000 0.000000 0.000000
NID337_UH        All              Long     0.000000 900.000000 10.000000 0.000000 0.000000 0.000000
NID3933_UH       RAINGAGE-1      
NID3933_UH       All              Short    0.000000 3.000000 3.000000 0.000000 0.000000 0.000000
NID3933_UH       All              Medium   0.000000 80.000000 5.000000 0.000000 0.000000 0.000000
NID3933_UH       All              Long     0.000000 900.000000 10.000000 0.000000 0.000000 0.000000
NID4263_UH       RAINGAGE-1      
NID4263_UH       All              Short    0.000000 3.000000 3.000000 0.000000 0.000000 0.000000
NID4263_UH       All              Medium   0.000000 80.000000 5.000000 0.000000 0.000000 0.000000
NID4263_UH       All              Long     0.000000 900.000000 10.000000 0.000000 0.000000 0.000000
NID4316_UH       RAINGAGE-1      
NID4316_UH       All              Short    0.000000 3.000000 3.000000 0.000000 0.000000 0.000000
NID4316_UH       All              Medium   0.000000 80.000000 5.000000 0.000000 0.000000 0.000000
NID4316_UH       All              Long     0.000000 900.000000 10.000000 0.000000 0.000000 0.000000
NID458_UH        RAINGAGE-1      
NID458_UH        All              Short    0.000000 3.000000 3.000000 0.000000 0.000000 0.000000
NID458_UH        All              Medium   0.000000 80.000000 5.000000 0.000000 0.000000 0.000000
NID458_UH        All              Long     0.000000 900.000000 10.000000 0.000000 0.000000 0.000000
NID465_UH        RAINGAGE-1      
NID465_UH        All              Short    0.000000 3.000000 3.000000 0.000000 0.000000 0.000000
NID465_UH        All              Medium   0.000000 80.000000 5.000000 0.000000 0.000000 0.000000
NID465_UH        All              Long     0.000000 900.000000 10.000000 0.000000 0.000000 0.000000
NID5107_UH       RAINGAGE-1      
NID5107_UH       All              Short    0.000000 3.000000 3.000000 0.000000 0.000000 0.000000
NID5107_UH       All              Medium   0.000000 80.000000 5.000000 0.000000 0.000000 0.000000
NID5107_UH       All              Long     0.000000 900.000000 10.000000 0.000000 0.000000 0.000000
NID5147_UH       RAINGAGE-1      
NID5147_UH       All              Short    0.000000 3.000000 3.000000 0.000000 0.000000 0.000000
NID5147_UH       All              Medium   0.000000 80.000000 5.000000 0.000000 0.000000 0.000000
NID5147_UH       All              Long     0.000000 900.000000 10.000000 0.000000 0.000000 0.000000
NID5334_UH       RAINGAGE-1      
NID5334_UH       All              Short    0.000000 3.000000 3.000000 0.000000 0.000000 0.000000
NID5334_UH       All              Medium   0.000000 80.000000 5.000000 0.000000 0.000000 0.000000
NID5334_UH       All              Long     0.000000 900.000000 10.000000 0.000000 0.000000 0.000000
NID555_UH        RAINGAGE-1      
NID555_UH        All              Short    0.000000 3.000000 3.000000 0.000000 0.000000 0.000000
NID555_UH        All              Medium   0.000000 80.000000 5.000000 0.000000 0.000000 0.000000
NID555_UH        All              Long     0.000000 900.000000 10.000000 0.000000 0.000000 0.000000
NID5743_UH       RAINGAGE-1      
NID5743_UH       All              Short    0.000000 3.000000 3.000000 0.000000 0.000000 0.000000
NID5743_UH       All              Medium   0.000000 80.000000 5.000000 0.000000 0.000000 0.000000
NID5743_UH       All              Long     0.000000 900.000000 10.000000 0.000000 0.000000 0.000000
NID5749_UH       RAINGAGE-1      
NID5749_UH       All              Short    0.000000 3.000000 3.000000 0.000000 0.000000 0.000000
NID5749_UH       All              Medium   0.000000 80.000000 5.000000 0.000000 0.000000 0.000000
NID5749_UH       All              Long     0.000000 900.000000 10.000000 0.000000 0.000000 0.000000
NID6063_UH       RAINGAGE-1      
NID6063_UH       All              Short    0.000000 3.000000 3.000000 0.000000 0.000000 0.000000
NID6063_UH       All              Medium   0.000000 80.000000 5.000000 0.000000 0.000000 0.000000
NID6063_UH       All              Long     0.000000 900.000000 10.000000 0.000000 0.000000 0.000000
NID6592_UH       RAINGAGE-1      
NID6592_UH       All              Short    0.000000 3.000000 3.000000 0.000000 0.000000 0.000000
NID6592_UH       All              Medium   0.000000 80.000000 5.000000 0.000000 0.000000 0.000000
NID6592_UH       All              Long     0.000000 900.000000 10.000000 0.000000 0.000000 0.000000
NID7275_UH       RAINGAGE-1      
NID7275_UH       All              Short    0.000000 3.000000 3.000000 0.000000 0.000000 0.000000
NID7275_UH       All              Medium   0.000000 80.000000 5.000000 0.000000 0.000000 0.000000
NID7275_UH       All              Long     0.000000 900.000000 10.000000 0.000000 0.000000 0.000000
NID7492_UH       RAINGAGE-1      
NID7492_UH       All              Short    0.000000 4.000000 3.000000 0.000000 0.000000 0.000000
NID7492_UH       All              Medium   0.000000 80.000000 5.000000 0.000000 0.000000 0.000000
NID7492_UH       All              Long     0.000000 900.000000 10.000000 0.000000 0.000000 0.000000
NID7709_UH       RAINGAGE-1      
NID7709_UH       All              Short    0.000000 3.000000 3.000000 0.000000 0.000000 0.000000
NID7709_UH       All              Medium   0.000000 80.000000 5.000000 0.000000 0.000000 0.000000
NID7709_UH       All              Long     0.000000 900.000000 10.000000 0.000000 0.000000 0.000000
NID7769_UH       RAINGAGE-1      
NID7769_UH       All              Short    0.000000 3.000000 3.000000 0.000000 0.000000 0.000000
NID7769_UH       All              Medium   0.000000 80.000000 5.000000 0.000000 0.000000 0.000000
NID7769_UH       All              Long     0.000000 900.000000 10.000000 0.000000 0.000000 0.000000
NID7787_UH       RAINGAGE-1      
NID7787_UH       All              Short    0.000000 3.000000 3.000000 0.000000 0.000000 0.000000
NID7787_UH       All              Medium   0.000000 80.000000 5.000000 0.000000 0.000000 0.000000
NID7787_UH       All              Long     0.000000 900.000000 10.000000 0.000000 0.000000 0.000000
NID7884_UH       RAINGAGE-1      
NID7884_UH       All              Short    0.000000 3.000000 3.000000 0.000000 0.000000 0.000000
NID7884_UH       All              Medium   0.000000 80.000000 5.000000 0.000000 0.000000 0.000000
NID7884_UH       All              Long     0.000000 900.000000 10.000000 0.000000 0.000000 0.000000
NID7985_UH       RAINGAGE-1      
NID7985_UH       All              Short    0.000000 3.000000 3.000000 0.000000 0.000000 0.000000
NID7985_UH       All              Medium   0.000000 80.000000 5.000000 0.000000 0.000000 0.000000
NID7985_UH       All              Long     0.000000 900.000000 10.000000 0.000000 0.000000 0.000000
NID8071_UH       RAINGAGE-1      
NID8071_UH       All              Short    0.000000 3.000000 3.000000 0.000000 0.000000 0.000000
NID8071_UH       All              Medium   0.000000 80.000000 5.000000 0.000000 0.000000 0.000000
NID8071_UH       All              Long     0.000000 900.000000 10.000000 0.000000 0.000000 0.000000
NID8195_UH       RAINGAGE-1      
NID8195_UH       All              Short    0.000000 3.000000 3.000000 0.000000 0.000000 0.000000
NID8195_UH       All              Medium   0.000000 80.000000 5.000000 0.000000 0.000000 0.000000
NID8195_UH       All              Long     0.000000 900.000000 10.000000 0.000000 0.000000 0.000000
NID888_UH        RAINGAGE-1      
NID888_UH        All              Short    0.000000 3.000000 3.000000 0.000000 0.000000 0.000000
NID888_UH        All              Medium   0.000000 80.000000 5.000000 0.000000 0.000000 0.000000
NID888_UH        All              Long     0.000000 900.000000 10.000000 0.000000 0.000000 0.000000
SMH0184A06_UH    RAINGAGE-1      
SMH0184A06_UH    All              Short    0.000000 3.000000 3.000000 0.000000 0.000000 0.000000
SMH0184A06_UH    All              Medium   0.000000 80.000000 5.000000 0.000000 0.000000 0.000000
SMH0184A06_UH    All              Long     0.000000 900.000000 10.000000 0.000000 0.000000 0.000000
SMH0184A08_UH    RAINGAGE-1      
SMH0184A08_UH    All              Short    0.000000 3.000000 3.000000 0.000000 0.000000 0.000000
SMH0184A08_UH    All              Medium   0.000000 80.000000 5.000000 0.000000 0.000000 0.000000
SMH0184A08_UH    All              Long     0.000000 900.000000 10.000000 0.000000 0.000000 0.000000
SMH0184C02_UH    RAINGAGE-1      
SMH0184C02_UH    All              Short    0.000000 3.000000 3.000000 0.000000 0.000000 0.000000
SMH0184C02_UH    All              Medium   0.000000 80.000000 5.000000 0.000000 0.000000 0.000000
SMH0184C02_UH    All              Long     0.000000 900.000000 10.000000 0.000000 0.000000 0.000000
SMH0184E13_UH    RAINGAGE-1      
SMH0184E13_UH    All              Short    0.000000 3.000000 3.000000 0.000000 0.000000 0.000000
SMH0184E13_UH    All              Medium   0.000000 80.000000 5.000000 0.000000 0.000000 0.000000
SMH0184E13_UH    All              Long     0.000000 900.000000 10.000000 0.000000 0.000000 0.000000
SMH0184F10_UH    RAINGAGE-1      
SMH0184F10_UH    All              Short    0.000000 3.000000 3.000000 0.000000 0.000000 0.000000
SMH0184F10_UH    All              Medium   0.000000 80.000000 5.000000 0.000000 0.000000 0.000000
SMH0184F10_UH    All              Long     0.000000 900.000000 10.000000 0.000000 0.000000 0.000000
SMH0184G03_UH    RAINGAGE-1      
SMH0184G03_UH    All              Short    0.000000 3.000000 3.000000 0.000000 0.000000 0.000000
SMH0184G03_UH    All              Medium   0.000000 80.000000 5.000000 0.000000 0.000000 0.000000
SMH0184G03_UH    All              Long     0.000000 900.000000 10.000000 0.000000 0.000000 0.000000
SMH0184H05_UH    RAINGAGE-1      
SMH0184H05_UH    All              Short    0.000000 3.000000 3.000000 0.000000 0.000000 0.000000
SMH0184H05_UH    All              Medium   0.000000 80.000000 5.000000 0.000000 0.000000 0.000000
SMH0184H05_UH    All              Long     0.000000 900.000000 10.000000 0.000000 0.000000 0.000000
SMH0184H11_UH    RAINGAGE-1      
SMH0184H11_UH    All              Short    0.000000 3.000000 3.000000 0.000000 0.000000 0.000000
SMH0184H11_UH    All              Medium   0.000000 80.000000 5.000000 0.000000 0.000000 0.000000
SMH0184H11_UH    All              Long     0.000000 900.000000 10.000000 0.000000 0.000000 0.000000
SMH0184J02_UH    RAINGAGE-1      
SMH0184J02_UH    All              Short    0.000000 3.000000 3.000000 0.000000 0.000000 0.000000
SMH0184J02_UH    All              Medium   0.000000 80.000000 5.000000 0.000000 0.000000 0.000000
SMH0184J02_UH    All              Long     0.000000 900.000000 10.000000 0.000000 0.000000 0.000000
SMH0184K09_UH    RAINGAGE-1      
SMH0184K09_UH    All              Short    0.000000 3.000000 3.000000 0.000000 0.000000 0.000000
SMH0184K09_UH    All              Medium   0.000000 80.000000 5.000000 0.000000 0.000000 0.000000
SMH0184K09_UH    All              Long     0.000000 900.000000 10.000000 0.000000 0.000000 0.000000
SMH0184K26_UH    RAINGAGE-1      
SMH0184K26_UH    All              Short    0.000000 3.000000 3.000000 0.000000 0.000000 0.000000
SMH0184K26_UH    All              Medium   0.000000 80.000000 5.000000 0.000000 0.000000 0.000000
SMH0184K26_UH    All              Long     0.000000 900.000000 10.000000 0.000000 0.000000 0.000000
SMH0184L03_UH    RAINGAGE-1      
SMH0184L03_UH    All              Short    0.000000 3.000000 3.000000 0.000000 0.000000 0.000000
SMH0184L03_UH    All              Medium   0.000000 80.000000 5.000000 0.000000 0.000000 0.000000
SMH0184L03_UH    All              Long     0.000000 900.000000 10.000000 0.000000 0.000000 0.000000
SMH0184R04_UH    RAINGAGE-1      
SMH0184R04_UH    All              Short    0.000000 3.000000 3.000000 0.000000 0.000000 0.000000
SMH0184R04_UH    All              Medium   0.000000 80.000000 5.000000 0.000000 0.000000 0.000000
SMH0184R04_UH    All              Long     0.000000 900.000000 10.000000 0.000000 0.000000 0.000000
SMH0184R05_UH    RAINGAGE-1      
SMH0184R05_UH    All              Short    0.000000 3.000000 3.000000 0.000000 0.000000 0.000000
SMH0184R05_UH    All              Medium   0.000000 80.000000 5.000000 0.000000 0.000000 0.000000
SMH0184R05_UH    All              Long     0.000000 900.000000 10.000000 0.000000 0.000000 0.000000
SMH0184R21_UH    RAINGAGE-1      
SMH0184R21_UH    All              Short    0.000000 3.000000 3.000000 0.000000 0.000000 0.000000
SMH0184R21_UH    All              Medium   0.000000 80.000000 5.000000 0.000000 0.000000 0.000000
SMH0184R21_UH    All              Long     0.000000 900.000000 10.000000 0.000000 0.000000 0.000000
SMH0184S03_UH    RAINGAGE-1      
SMH0184S03_UH    All              Short    0.000000 3.000000 3.000000 0.000000 0.000000 0.000000
SMH0184S03_UH    All              Medium   0.000000 80.000000 5.000000 0.000000 0.000000 0.000000
SMH0184S03_UH    All              Long     0.000000 900.000000 10.000000 0.000000 0.000000 0.000000
SMH0184S06_UH    RAINGAGE-1      
SMH0184S06_UH    All              Short    0.000000 3.000000 3.000000 0.000000 0.000000 0.000000
SMH0184S06_UH    All              Medium   0.000000 80.000000 5.000000 0.000000 0.000000 0.000000
SMH0184S06_UH    All              Long     0.000000 900.000000 10.000000 0.000000 0.000000 0.000000
SMH0184S11_UH    RAINGAGE-1      
SMH0184S11_UH    All              Short    0.000000 3.000000 3.000000 0.000000 0.000000 0.000000
SMH0184S11_UH    All              Medium   0.000000 80.000000 5.000000 0.000000 0.000000 0.000000
SMH0184S11_UH    All              Long     0.000000 900.000000 10.000000 0.000000 0.000000 0.000000
SMH0184T04_UH    RAINGAGE-1      
SMH0184T04_UH    All              Short    0.000000 3.000000 3.000000 0.000000 0.000000 0.000000
SMH0184T04_UH    All              Medium   0.000000 80.000000 5.000000 0.000000 0.000000 0.000000
SMH0184T04_UH    All              Long     0.000000 900.000000 10.000000 0.000000 0.000000 0.000000
SMH0184Z02_UH    RAINGAGE-1      
SMH0184Z02_UH    All              Short    0.000000 3.000000 3.000000 0.000000 0.000000 0.000000