[TITLE]
 

[OPTIONS]
 FLOW_UNITS            CMS
 INFILTRATION          HORTON
 FLOW_ROUTING          DYNWAVE
 START_DATE            01/01/2016
 START_TIME            00:00:00
 REPORT_START_DATE     01/01/2016
 REPORT_START_TIME     00:00:00
 END_DATE              01/04/2016
 END_TIME              00:00:00
 REPORT_STEP           00:01:00
 WET_STEP              00:01:00
 DRY_STEP              72:00:00
 ROUTING_STEP          00:01:00
 ALLOW_PONDING         NO
 INERTIAL_DAMPING      PARTIAL
 VARIABLE_STEP         0.750000
 LENGTHENING_STEP      0.000000
 MIN_SURFAREA          0.000000
 NORMAL_FLOW_LIMITED   FROUDE
 SKIP_STEADY_STATE     NO
 IGNORE_RAINFALL       NO
 FORCE_MAIN_EQUATION   H-W
 LINK_OFFSETS          DEPTH
 COMPATIBILITY         5

[REPORT]
 INPUT YES
 CONTINUITY YES
 FLOWSTATS YES
 CONTROLS NO
 SUBCATCHMENTS ALL
 NODES ALL
 LINKS ALL

[RAINGAGES]
;;                 Rain      Recd.  Snow   Data       Source           Station    Rain  Start
;;Name             Type      Freq.  Catch  Source     Name             ID         Units Date
;;------------------------------------------------------------------------------------------------
  FLTE_0.5EY_15min_3 VOLUME    0.08333 1.0    TIMESERIES RN#3             

[JUNCTIONS]
;;                 Invert     Max.       Init.      Surcharge  Ponded
;;Name             Elev.      Depth      Depth      Depth      Area
;;------------------------------------------------------------------------
  Node0            0          0          0         
  Node1            0          0          0         
  Node2            0          0          0         
  Node3            0          0          0         
  Node4            0          0          0         
  Node5            0          0          0         
  Node6            0          0          0         
  Node8            0          0          0         
  Node9            0          0          0         
  Node10           0          0          0         
  Node11           0          0          0         
  Node12           0          0          0         
  Node13           0          0          0         
  Node14           0          0          0         
  Node15           0          0          0         
  Node16           0          0          0         
  Node17           0          0          0         
  Node18           0          0          0         
  Node19           0          0          0         
  Node20           0          0          0         
  Node21           0          0          0         
  Node22           0          0          0         
  Node23           0          0          0         
  Node24           0          0          0         
  Node25           0          0          0         
  Node26           0          0          0         
  Node27           0          0          0         
  Node28           0          0          0         
  Node30           0          0          0         
  Node31           0          0          0         
  Node32           0          0          0         
  Node33           0          0          0         
  Node34           0          0          0         
  Node35           0          0          0         
  Node36           0          0          0         
  Node37           0          0          0         
  Node38           0          0          0         
  Node39           0          0          0         
  Node40           0          0          0         
  Node41           0          0          0         
  Node42           0          0          0         
  Node43           0          0          0         
  Node44           0          0          0         
  Node45           0          0          0         
  Node46           0          0          0         
  Node47           0          0          0         
  Node48           0          0          0         
  Node49           0          0          0         
  Node50           0          0          0         
  Node51           0          0          0         
  Node52           0          0          0         
  Node53           0          0          0         
  Node54           0          0          0         
  Node55           0          0          0         
  Node56           0          0          0         
  Node57           0          0          0         
  Node58           0          0          0         
  Node59           0          0          0         
  Node60           0          0          0         
  Node61           0          0          0         
  Node62           0          0          0         
  Node63           0          0          0         
  Node64           0          0          0         
  Node65           0          0          0         
  Node66           0          0          0         
  Node67           0          0          0         
  Node68           0          0          0         
  Node69           0          0          0         
  Node70           0          0          0         
  Node71           0          0          0         
  Node72           0          0          0         
  Node73           0          0          0         
  Node74           0          0          0         
  Node75           0          0          0         
  Node76           0          0          0         
  Node77           0          0          0         
  Node78           0          0          0         
  Node79           0          0          0         
  Node80           0          0          0         
  Node81           0          0          0         
  Node82           0          0          0         
  Node83           0          0          0         
  Node84           0          0          0         
  Node85           0          0          0         
  Node86           0          0          0         
  Node87           0          0          0         
  Node88           0          0          0         
  Node89           0          0          0         
  Node90           0          0          0         
  Node91           0          0          0         
  Node92           0          0          0         
  Node93           0          0          0         
  Node94           0          0          0         
  Node95           0          0          0         
  Node96           0          0          0         
  Node97           0          0          0         
  Node98           0          0          0         
  Node99           0          0          0         
  Node100          0          0          0         
  Node101          0          0          0         
  Node102          0          0          0         
  Node103          0          0          0         
  Node104          0          0          0         
  Node105          0          0          0         
  Node106          0          0          0         
  Node107          0          0          0         
  Node108          0          0          0         
  Node109          0          0          0         
  Node110          0          0          0         
  Node111          0          0          0         
  Node112          0          0          0         
  Node113          0          0          0         
  Node114          0          0          0         
  Node116          0          0          0         
  Node117          0          0          0         
  Node118          0          0          0         
  Node119          0          0          0         
  Node120          0          0          0         
  Node121          0          0          0         
  Node122          0          0          0         
  Node123          0          0          0         
  Node124          0          0          0         
  Node125          0          0          0         
  Node126          0          0          0         
  Node127          0          0          0         
  Node128          0          0          0         
  Node129          0          0          0         
  Node130          0          0          0         
  Node131          0          0          0         
  Node132          0          0          0         
  Node133          0          0          0         
  Node134          0          0          0         
  Node135          0          0          0         
  Node136          0          0          0         
  Node137          0          0          0         
  Node138          0          0          0         
  Node139          0          0          0         
  Node140          0          0          0         
  Node141          0          0          0         
  Node142          0          0          0         
  Node143          0          0          0         
  Node144          0          0          0         
  Node145          0          0          0         
  Node146          0          0          0         
  Node147          0          0          0         
  Node148          0          0          0         
  Node149          0          0          0         
  Node150          0          0          0         
  Node151          0          0          0         
  Node152          0          0          0         
  Node153          0          0          0         
  Node154          0          0          0         
  Node155          0          0          0         
  Node156          0          0          0         
  Node157          0          0          0         
  Node158          0          0          0         
  Node159          0          0          0         
  Node160          0          0          0         
  Node161          0          0          0         
  Node162          0          0          0         
  Node163          0          0          0         
  Node164          0          0          0         
  Node165          0          0          0         
  Node166          0          0          0         
  Node167          0          0          0         
  Node168          0          0          0         
  Node170          0          0          0         
  Node171          0          0          0         
  Node172          0          0          0         
  Node173          0          0          0         
  Node174          0          0          0         
  Node175          0          0          0         
  Node176          0          0          0         
  Node177          0          0          0         
  Node178          0          0          0         
  Node179          0          0          0         
  Node180          0          0          0         
  Node181          0          0          0         
  Node182          0          0          0         
  Node183          0          0          0         
  Node184          0          0          0         
  Node185          0          0          0         
  Node186          0          0          0         
  Node187          0          0          0         
  Node188          0          0          0         
  Node189          0          0          0         
  Node190          0          0          0         
  Node191          0          0          0         
  Node192          0          0          0         
  Node193          0          0          0         
  Node194          0          0          0         
  Node195          0          0          0         
  Node196          0          0          0         
  Node197          0          0          0         
  Node198          0          0          0         
  Node199          0          0          0         
  Node200          0          0          0         
  Node201          0          0          0         
  Node202          0          0          0         
  Node203          0          0          0         
  Node204          0          0          0         
  Node205          0          0          0         
  Node206          0          0          0         
  Node207          0          0          0         
  Node208          0          0          0         
  Node210          0          0          0         
  Node211          0          0          0         
  Node212          0          0          0         
  Node213          0          0          0         
  Node214          0          0          0         
  Node215          0          0          0         
  Node216          0          0          0         
  Node217          0          0          0         
  Node218          0          0          0         
  Node219          0          0          0         
  Node220          0          0          0         
  Node221          0          0          0         
  Node222          0          0          0         
  Node223          0          0          0         
  Node224          0          0          0         
  Node225          0          0          0         
  Node226          0          0          0         
  Node227          0          0          0         
  Node228          0          0          0         
  Node229          0          0          0         
  Node230          0          0          0         
  Node231          0          0          0         
  Node232          0          0          0         
  Node233          0          0          0         
  Node234          0          0          0         
  Node235          0          0          0         
  Node236          0          0          0         
  Node237          0          0          0         
  Node238          0          0          0         
  Node239          0          0          0         
  Node240          0          0          0         
  Node241          0          0          0         
  Node242          0          0          0         
  Node243          0          0          0         
  Node244          0          0          0         
  Node245          0          0          0         
  Node246          0          0          0         
  Node251          0          0          0         
  Node252          0          0          0         
  Node253          0          0          0         
  Node254          0          0          0         
  Node255          0          0          0         

[STORAGE]
;;                 Invert   Max.       Init.        Shape       Shape                           Ponded        Evap. 
;;Name             Elev.    Depth      Depth        Curve       Params                          Area          Frac. 
;;------------------------------------------------------------------------------------------------------------------
[SUBCATCHMENTS]
;;                                                   Total    Pcnt.             Pcnt.    Curb     Snow
;;Name             Raingage         Outlet           Area     Imperv   Width    Slope    Length   Pack
;;----------------------------------------------------------------------------------------------------
  Node0#1          FLTE_12EY_10min_1 Node0            14.822   0        235.279  7.29     0                
  Node0#2          FLTE_12EY_10min_1 Node0            4.542    100      235.279  7.29     0                
  Node1#1          FLTE_12EY_10min_1 Node1            15.618   0        307.979  8.24     0                
  Node1#2          FLTE_12EY_10min_1 Node1            5.324    100      307.979  8.24     0                
  Node2#1          FLTE_12EY_10min_1 Node2            4.343    0        217.898  4.03     0                
  Node2#2          FLTE_12EY_10min_1 Node2            5.397    100      217.898  4.03     0                
  Node3#1          FLTE_12EY_10min_1 Node3            3.389    0        193.68   3.83     0                
  Node3#2          FLTE_12EY_10min_1 Node3            4.203    100      193.68   3.83     0                
  Node4#1          FLTE_12EY_10min_1 Node4            5.633    0        176.837  2.68     0                
  Node4#2          FLTE_12EY_10min_1 Node4            7.577    100      176.837  2.68     0                
  Node5#1          FLTE_12EY_10min_1 Node5            0.949    0        115.801  2.79     0                
  Node5#2          FLTE_12EY_10min_1 Node5            1.75     100      115.801  2.79     0                
  Node6#1          FLTE_12EY_10min_1 Node6            4.446    0        229.181  2.65     0                
  Node6#2          FLTE_12EY_10min_1 Node6            5.053    100      229.181  2.65     0                
  Node8#1          FLTE_12EY_10min_1 Node8            8.477    0        312.366  1.34     0                
  Node8#2          FLTE_12EY_10min_1 Node8            14.794   100      312.366  1.34     0                
  Node9#1          FLTE_12EY_10min_1 Node9            2.682    0        170.006  2.03     0                
  Node9#2          FLTE_12EY_10min_1 Node9            4.441    100      170.006  2.03     0                
  Node10#1         FLTE_12EY_10min_1 Node10           16.331   0        321.764  2.89     0                
  Node10#2         FLTE_12EY_10min_1 Node10           2.593    100      321.764  2.89     0                
  Node11#1         FLTE_12EY_10min_1 Node11           7.321    0        225.717  3.04     0                
  Node11#2         FLTE_12EY_10min_1 Node11           10.128   100      225.717  3.04     0                
  Node12#1         FLTE_12EY_10min_1 Node12           11.595   0        278.131  1.25     0                
  Node12#2         FLTE_12EY_10min_1 Node12           13.903   100      278.131  1.25     0                
  Node13#1         FLTE_12EY_10min_1 Node13           9.786    0        297.464  1.29     0                
  Node13#2         FLTE_12EY_10min_1 Node13           11.551   100      297.464  1.29     0                
  Node14#1         FLTE_12EY_10min_1 Node14           6.361    0        149.392  0.77     0                
  Node14#2         FLTE_12EY_10min_1 Node14           5.268    100      149.392  0.77     0                
  Node15#1         FLTE_12EY_10min_1 Node15           1.599    0        287.48   1.29     0                
  Node15#2         FLTE_12EY_10min_1 Node15           8.453    100      287.48   1.29     0                
  Node16#1         FLTE_12EY_10min_1 Node16           1.489    0        195.419  1.11     0                
  Node16#2         FLTE_12EY_10min_1 Node16           6.403    100      195.419  1.11     0                
  Node17#1         FLTE_12EY_10min_1 Node17           2.639    0        154.728  0.67     0                
  Node17#2         FLTE_12EY_10min_1 Node17           1.982    100      154.728  0.67     0                
  Node18#1         FLTE_12EY_10min_1 Node18           8.765    0        210.164  1.04     0                
  Node18#2         FLTE_12EY_10min_1 Node18           12.407   100      210.164  1.04     0                
  Node19#1         FLTE_12EY_10min_1 Node19           2.282    0        128.256  0.42     0                
  Node19#2         FLTE_12EY_10min_1 Node19           2.344    100      128.256  0.42     0                
  Node20#1         FLTE_12EY_10min_1 Node20           2.309    0        100.52   0.17     0                
  Node20#2         FLTE_12EY_10min_1 Node20           3.779    100      100.52   0.17     0                
  Node21#1         FLTE_12EY_10min_1 Node21           8.778    0        100.703  0.86     0                
  Node21#2         FLTE_12EY_10min_1 Node21           4.035    100      100.703  0.86     0                
  Node22#1         FLTE_12EY_10min_1 Node22           4.438    0        206.943  0.76     0                
  Node22#2         FLTE_12EY_10min_1 Node22           6.39     100      206.943  0.76     0                
  Node23#1         FLTE_12EY_10min_1 Node23           4.107    0        140.808  0.26     0                
  Node23#2         FLTE_12EY_10min_1 Node23           3.921    100      140.808  0.26     0                
  Node24#1         FLTE_12EY_10min_1 Node24           2.36     0        183.511  0.15     0                
  Node24#2         FLTE_12EY_10min_1 Node24           3.627    100      183.511  0.15     0                
  Node25#1         FLTE_12EY_10min_1 Node25           3.589    0        86.912   0.23     0                
  Node25#2         FLTE_12EY_10min_1 Node25           2.117    100      86.912   0.23     0                
  Node26#1         FLTE_12EY_10min_1 Node26           2.26     0        243.447  0.26     0                
  Node26#2         FLTE_12EY_10min_1 Node26           2.403    100      243.447  0.26     0                
  Node27#1         FLTE_12EY_10min_1 Node27           2.395    0        281.788  0.41     0                
  Node27#2         FLTE_12EY_10min_1 Node27           1.046    100      281.788  0.41     0                
  Node28#1         FLTE_12EY_10min_1 Node28           6.354    0        250.98   1.27     0                
  Node28#2         FLTE_12EY_10min_1 Node28           10.441   100      250.98   1.27     0                
  Node30#1         FLTE_12EY_10min_1 Node30           5.568    0        213.514  1.53     0                
  Node30#2         FLTE_12EY_10min_1 Node30           6.961    100      213.514  1.53     0                
  Node31#1         FLTE_12EY_10min_1 Node31           13.559   0        459.436  1.65     0                
  Node31#2         FLTE_12EY_10min_1 Node31           15.635   100      459.436  1.65     0                
  Node32#1         FLTE_12EY_10min_1 Node32           26.437   0        428.263  0.51     0                
  Node32#2         FLTE_12EY_10min_1 Node32           23.571   100      428.263  0.51     0                
  Node33#1         FLTE_12EY_10min_1 Node33           4.485    0        176.557  6.32     0                
  Node33#2         FLTE_12EY_10min_1 Node33           3.055    100      176.557  6.32     0                
  Node34#1         FLTE_12EY_10min_1 Node34           11.482   0        324.831  2.97     0                
  Node34#2         FLTE_12EY_10min_1 Node34           15.84    100      324.831  2.97     0                
  Node35#1         FLTE_12EY_10min_1 Node35           3.309    0        199.056  0.4      0                
  Node35#2         FLTE_12EY_10min_1 Node35           4.218    100      199.056  0.4      0                
  Node36#1         FLTE_12EY_10min_1 Node36           1.687    0        121.761  5.31     0                
  Node36#2         FLTE_12EY_10min_1 Node36           1.524    100      121.761  5.31     0                
  Node37#1         FLTE_12EY_10min_1 Node37           22.011   0        320.9    0.69     0                
  Node37#2         FLTE_12EY_10min_1 Node37           1.158    100      320.9    0.69     0                
  Node38#1         FLTE_12EY_10min_1 Node38           38.937   0        641.64   1.87     0                
  Node38#2         FLTE_12EY_10min_1 Node38           29.526   100      641.64   1.87     0                
  Node39#1         FLTE_12EY_10min_1 Node39           102.254  0        864.549  0.25     0                
  Node39#2         FLTE_12EY_10min_1 Node39           118.672  100      864.549  0.25     0                
  Node40#1         FLTE_12EY_10min_1 Node40           89.806   0        528.377  3.06     0                
  Node40#2         FLTE_12EY_10min_1 Node40           5.143    100      528.377  3.06     0                
  Node41#1         FLTE_12EY_10min_1 Node41           40.488   0        482.891  4.91     0                
  Node41#2         FLTE_12EY_10min_1 Node41           72.605   100      482.891  4.91     0                
  Node42#1         FLTE_12EY_10min_1 Node42           36.828   0        549.422  3.4      0                
  Node42#2         FLTE_12EY_10min_1 Node42           76.243   100      549.422  3.4      0                
  Node43#1         FLTE_12EY_10min_1 Node43           5.877    0        320.147  3.8      0                
  Node43#2         FLTE_12EY_10min_1 Node43           6.75     100      320.147  3.8      0                
  Node44#1         FLTE_12EY_10min_1 Node44           4.061    0        188.761  2.08     0                
  Node44#2         FLTE_12EY_10min_1 Node44           1.826    100      188.761  2.08     0                
  Node45#1         FLTE_12EY_10min_1 Node45           8.951    0        351.841  1.57     0                
  Node45#2         FLTE_12EY_10min_1 Node45           11.203   100      351.841  1.57     0                
  Node46#1         FLTE_12EY_10min_1 Node46           13.014   0        357.664  1.47     0                
  Node46#2         FLTE_12EY_10min_1 Node46           13.778   100      357.664  1.47     0                
  Node47#1         FLTE_12EY_10min_1 Node47           31.057   0        418.999  1.89     0                
  Node47#2         FLTE_12EY_10min_1 Node47           3.37     100      418.999  1.89     0                
  Node48#1         FLTE_12EY_10min_1 Node48           17.588   0        527.178  0.18     0                
  Node48#2         FLTE_12EY_10min_1 Node48           27.548   100      527.178  0.18     0                
  Node49#1         FLTE_12EY_10min_1 Node49           13.941   0        602.97   0.41     0                
  Node49#2         FLTE_12EY_10min_1 Node49           22.394   100      602.97   0.41     0                
  Node50#1         FLTE_12EY_10min_1 Node50           3.097    0        199.21   0.24     0                
  Node50#2         FLTE_12EY_10min_1 Node50           5.11     100      199.21   0.24     0                
  Node51#1         FLTE_12EY_10min_1 Node51           16.53    0        535.649  0.25     0                
  Node51#2         FLTE_12EY_10min_1 Node51           26.925   100      535.649  0.25     0                
  Node52#1         FLTE_12EY_10min_1 Node52           5.571    0        201.086  0.35     0                
  Node52#2         FLTE_12EY_10min_1 Node52           8.943    100      201.086  0.35     0                
  Node53#1         FLTE_12EY_10min_1 Node53           277.574  0        1098.98  0.41     0                
  Node53#2         FLTE_12EY_10min_1 Node53           14.621   100      1098.98  0.41     0                
  Node54#1         FLTE_12EY_10min_1 Node54           4.421    0        251.479  1.09     0                
  Node54#2         FLTE_12EY_10min_1 Node54           12.852   100      251.479  1.09     0                
  Node55#1         FLTE_12EY_10min_1 Node55           352.519  0        1282.3   0.27     0                
  Node55#2         FLTE_12EY_10min_1 Node55           33.302   100      1282.3   0.27     0                
  Node56#1         FLTE_12EY_10min_1 Node56           55.549   0        509.284  0.24     0                
  Node56#2         FLTE_12EY_10min_1 Node56           38.009   100      509.284  0.24     0                
  Node57#1         FLTE_12EY_10min_1 Node57           11.366   0        310.967  0.22     0                
  Node57#2         FLTE_12EY_10min_1 Node57           24.281   100      310.967  0.22     0                
  Node58#1         FLTE_12EY_10min_1 Node58           106.68   0        847.034  0.3      0                
  Node58#2         FLTE_12EY_10min_1 Node58           34.064   100      847.034  0.3      0                
  Node59#1         FLTE_12EY_10min_1 Node59           17.861   0        452.809  0.39     0                
  Node59#2         FLTE_12EY_10min_1 Node59           16.83    100      452.809  0.39     0                
  Node60#1         FLTE_12EY_10min_1 Node60           480.001  0        1843.97  0.18     0                
  Node60#2         FLTE_12EY_10min_1 Node60           120.213  100      1843.97  0.18     0                
  Node61#1         FLTE_12EY_10min_1 Node61           291.754  0        1565.45  0.26     0                
  Node61#2         FLTE_12EY_10min_1 Node61           93.293   100      1565.45  0.26     0                
  Node62#1         FLTE_12EY_10min_1 Node62           131.228  0        1233.07  0.28     0                
  Node62#2         FLTE_12EY_10min_1 Node62           70.354   100      1233.07  0.28     0                
  Node63#1         FLTE_12EY_10min_1 Node63           82.948   0        1072.59  0.19     0                
  Node63#2         FLTE_12EY_10min_1 Node63           118.808  100      1072.59  0.19     0                
  Node64#1         FLTE_12EY_10min_1 Node64           390.952  0        942.844  0.29     0                
  Node64#2         FLTE_12EY_10min_1 Node64           76.212   100      942.844  0.29     0                
  Node65#1         FLTE_12EY_10min_1 Node65           78.068   0        857.17   3.64     0                
  Node65#2         FLTE_12EY_10min_1 Node65           51.279   100      857.17   3.64     0                
  Node66#1         FLTE_12EY_10min_1 Node66           110.578  0        707.587  2.74     0                
  Node66#2         FLTE_12EY_10min_1 Node66           5.82     100      707.587  2.74     0                
  Node67#1         FLTE_12EY_10min_1 Node67           13.822   0        254.8    1.93     0                
  Node67#2         FLTE_12EY_10min_1 Node67           0.727    100      254.8    1.93     0                
  Node68#1         FLTE_12EY_10min_1 Node68           9.429    0        218.984  2.1      0                
  Node68#2         FLTE_12EY_10min_1 Node68           3.075    100      218.984  2.1      0                
  Node69#1         FLTE_12EY_10min_1 Node69           100.44   0        749.171  3.08     0                
  Node69#2         FLTE_12EY_10min_1 Node69           8.939    100      749.171  3.08     0                
  Node70#1         FLTE_12EY_10min_1 Node70           56.033   0        538.653  1.1      0                
  Node70#2         FLTE_12EY_10min_1 Node70           2.949    100      538.653  1.1      0                
  Node71#1         FLTE_12EY_10min_1 Node71           20.831   0        202.652  0.74     0                