[TITLE]
;;Project Title/Notes

[OPTIONS]
;;Option             Value
FLOW_UNITS           MGD
INFILTRATION         HORTON
FLOW_ROUTING         KINWAVE
LINK_OFFSETS         DEPTH
MIN_SLOPE            0
ALLOW_PONDING        YES
SKIP_STEADY_STATE    NO

START_DATE           12/31/2018
START_TIME           00:00:00
REPORT_START_DATE    12/31/2018
REPORT_START_TIME    00:00:00
END_DATE             12/31/2018
END_TIME             00:00:00
SWEEP_START          1/1
SWEEP_END            12/31
DRY_DAYS             0
REPORT_STEP          00:15:00
WET_STEP             00:05:00
DRY_STEP             01:00:00
ROUTING_STEP         0:00:30 

INERTIAL_DAMPING     PARTIAL
NORMAL_FLOW_LIMITED  BOTH
FORCE_MAIN_EQUATION  H-W
VARIABLE_STEP        0.75
LENGTHENING_STEP     0
MIN_SURFAREA         0
MAX_TRIALS           0
HEAD_TOLERANCE       0
SYS_FLOW_TOL         5
LAT_FLOW_TOL         5
MINIMUM_STEP         0.5
THREADS              1

[EVAPORATION]
;;Data Source    Parameters
;;-------------- ----------------
CONSTANT         0.0
DRY_ONLY         NO

[SUBCATCHMENTS]
;;Name           Rain Gage        Outlet           Area     %Imperv  Width    %Slope   CurbLen  SnowPack        
;;-------------- ---------------- ---------------- -------- -------- -------- -------- -------- ----------------
; Name Raingage Outlet Area %Imperv Width Slope Clength
11697.1          1                11697            0.000000 0.000000 144.725254 5.031832 0.000000                 
11729.1          1                11729            0.000000 0.000000 109.803079 4.343031 0.000000                 
11729.2          1                11729            0.000000 0.000000 61.861727 4.343031 0.000000                 
11730.1          1                11730            0.000000 0.000000 98.630566 4.856501 0.000000                 
11731.1          1                11731            0.000000 0.000000 95.350797 4.380339 0.000000                 
11731.2          1                11731            0.000000 0.000000 130.754110 4.380339 0.000000                 
11732.1          1                11732            0.000000 0.000000 172.120430 1.003902 0.000000                 
11733.1          1                11733            0.000000 0.000000 64.015277 0.962963 0.000000                 
11733.2          1                11733            0.000000 0.000000 46.971834 0.962963 0.000000                 
11734.1          1                11734            0.000000 0.000000 97.807453 0.907766 0.000000                 
11735.1          1                11735            0.000000 0.000000 106.851218 1.529748 0.000000                 
11735.2          1                11735            0.000000 0.000000 134.573972 1.529748 0.000000                 
11736.1          1                11736            0.000000 0.000000 87.964978 3.579284 0.000000                 
11736.2          1                11736            0.000000 0.000000 115.646617 3.579284 0.000000                 
11737.1          1                11737            0.000000 0.000000 151.667122 0.956481 0.000000                 
11738.1          1                11738            0.000000 0.000000 148.384205 1.268479 0.000000                 
11761.1          1                11761            0.000000 0.000000 114.443780 0.945450 0.000000                 
11761.2          1                11761            0.000000 0.000000 63.559892 0.945450 0.000000                 
11761.3          1                11761            0.000000 0.000000 83.339995 0.945450 0.000000                 
11764.1          1                11764            0.000000 0.000000 100.357557 0.951553 0.000000                 
11764.2          1                11764            0.000000 0.000000 127.374582 0.951553 0.000000                 
11765.1          1                11765            0.000000 0.000000 87.453844 4.049684 0.000000                 
11765.2          1                11765            0.000000 0.000000 104.745721 4.049684 0.000000                 
11766.1          1                11766            0.000000 0.000000 174.288306 0.950587 0.000000                 
11767.1          1                11767            0.000000 0.000000 142.228158 1.406003 0.000000                 
11768.1          1                11768            0.000000 0.000000 70.628003 1.071949 0.000000                 
11768.2          1                11768            0.000000 0.000000 106.853054 1.071949 0.000000                 
11769.1          1                11769            0.000000 0.000000 74.958007 1.117640 0.000000                 
11769.2          1                11769            0.000000 0.000000 115.630017 1.117640 0.000000                 
11771            1                11771            0.000000 0.000000 127.345258 0.861940 0.000000                 
11771.1          1                11771            0.000000 0.000000 68.835861 0.861940 0.000000                 
11772.1          1                11772            0.000000 0.000000 98.154718 0.991973 0.000000                 
11772.2          1                11772            0.000000 0.000000 110.561401 0.991973 0.000000                 
11773.1          1                11773            0.000000 0.000000 133.360673 3.131146 0.000000                 
11777.1          1                11777            0.000000 0.000000 80.896963 6.250809 0.000000                 
11778.1          1                11778            0.000000 0.000000 139.855916 3.278703 0.000000                 
11779.1          1                11779            0.000000 0.000000 80.054606 2.836578 0.000000                 
11779.2          1                11779            0.000000 0.000000 92.314329 2.836578 0.000000                 
11780.1          1                11780            0.000000 0.000000 69.667033 0.960120 0.000000                 
11781.1          1                11781            0.000000 0.000000 78.059435 1.289124 0.000000                 
11781.2          1                11781            0.000000 0.000000 61.857327 1.289124 0.000000                 
11782.1          1                11782            0.000000 0.000000 77.611293 5.037405 0.000000                 
11782.2          1                11782            0.000000 0.000000 94.010577 5.037405 0.000000                 
11783.1          1                11783            0.000000 0.000000 114.692422 4.905403 0.000000                 
11783.2          1                11783            0.000000 0.000000 98.499775 4.905403 0.000000                 
11784.1          1                11784            0.000000 0.000000 42.500067 4.731793 0.000000                 
11784.2          1                11784            0.000000 0.000000 93.732217 4.731793 0.000000                 
11785.1          1                11785            0.000000 0.000000 92.968141 1.410481 0.000000                 
11785.2          1                11785            0.000000 0.000000 67.101930 1.410481 0.000000                 
11787.1          1                11787            0.000000 0.000000 104.330066 5.009923 0.000000                 
11787.2          1                11787            0.000000 0.000000 99.707270 5.009923 0.000000                 
11788.1          1                11788            0.000000 0.000000 56.767581 6.680304 0.000000                 
11789.1          1                11789            0.000000 0.000000 97.630706 5.164806 0.000000                 
11789.2          1                11789            0.000000 0.000000 94.941089 5.164806 0.000000                 
11791.1          1                11791            0.000000 0.000000 74.399407 3.653050 0.000000                 
11791.2          1                11791            0.000000 0.000000 117.993345 3.653050 0.000000                 
11792.1          1                11792            0.000000 0.000000 75.953613 1.562315 0.000000                 
11792.2          1                11792            0.000000 0.000000 106.084744 1.562315 0.000000                 
11793.1          1                11793            0.000000 0.000000 178.163098 1.127052 0.000000                 
11794.1          1                11794            0.000000 0.000000 115.780507 0.944233 0.000000                 
11794.2          1                11794            0.000000 0.000000 120.304230 0.944233 0.000000                 
11794.3          1                11794            0.000000 0.000000 90.782487 0.944233 0.000000                 
11794.4          1                11794            0.000000 0.000000 100.063806 0.944233 0.000000                 
11795.1          1                11795            0.000000 0.000000 99.903560 0.908835 0.000000                 
11795.2          1                11795            0.000000 0.000000 75.053326 0.908835 0.000000                 
11796.1          1                11796            0.000000 0.000000 87.048864 0.790542 0.000000                 
11796.2          1                11796            0.000000 0.000000 113.029501 0.790542 0.000000                 
11797.1          1                11797            0.000000 0.000000 64.245912 2.178447 0.000000                 
11798.1          1                11798            0.000000 0.000000 93.325171 5.121030 0.000000                 
11798.2          1                11798            0.000000 0.000000 91.549459 5.121030 0.000000                 
11799.1          1                11799            0.000000 0.000000 81.448658 3.250246 0.000000                 
11799.2          1                11799            0.000000 0.000000 97.838699 3.250246 0.000000                 
11799.3          1                11799            0.000000 0.000000 84.274485 3.250246 0.000000                 
11803.1          1                11803            0.000000 0.000000 62.118134 1.355850 0.000000                 
11803.2          1                11803            0.000000 0.000000 110.941710 1.355850 0.000000                 
11804.1          1                11804            0.000000 0.000000 99.175903 4.103739 0.000000                 
11805.1          1                11805            0.000000 0.000000 128.635394 3.229748 0.000000                 
11805.2          1                11805            0.000000 0.000000 67.957200 3.229748 0.000000                 
11806.1          1                11806            0.000000 0.000000 74.414560 4.081883 0.000000                 
11808.1          1                11808            0.000000 0.000000 128.242669 1.628370 0.000000                 
11810.1          1                11810            0.000000 0.000000 114.417449 0.434861 0.000000                 
11810.2          1                11810            0.000000 0.000000 123.553820 0.434861 0.000000                 
11811.1          1                11811            0.000000 0.000000 102.510538 1.002815 0.000000                 
11811.2          1                11811            0.000000 0.000000 100.813879 1.002815 0.000000                 
11811.3          1                11811            0.000000 0.000000 96.475294 1.002815 0.000000                 
11811.4          1                11811            0.000000 0.000000 109.037906 1.002815 0.000000                 
11812.1          1                11812            0.000000 0.000000 86.597901 0.999979 0.000000                 
11813.1          1                11813            0.000000 0.000000 86.071429 3.988108 0.000000                 
11814.1          1                11814            0.000000 0.000000 168.110578 2.819054 0.000000                 
11815.1          1                11815            0.000000 0.000000 91.724491 1.059555 0.000000                 
11815.2          1                11815            0.000000 0.000000 63.047114 1.059555 0.000000                 
11816.1          1                11816            0.000000 0.000000 136.857427 0.851388 0.000000                 
11817.1          1                11817            0.000000 0.000000 77.731878 1.648757 0.000000                 
11817.2          1                11817            0.000000 0.000000 117.130069 1.648757 0.000000                 
11818.1          1                11818            0.000000 0.000000 198.849958 3.590228 0.000000                 
11819.1          1                11819            0.000000 0.000000 85.888289 3.665458 0.000000                 
11819.2          1                11819            0.000000 0.000000 77.905004 3.665458 0.000000                 
11820.1          1                11820            0.000000 0.000000 158.202908 3.839410 0.000000                 
11820.2          1                11820            0.000000 0.000000 104.901477 3.839410 0.000000                 
11821.1          1                11821            0.000000 0.000000 98.238053 0.925744 0.000000                 
11822.1          1                11822            0.000000 0.000000 98.096307 2.397011 0.000000                 
11822.2          1                11822            0.000000 0.000000 78.419299 2.397011 0.000000                 
11826.1          1                11826            0.000000 0.000000 102.837858 5.024491 0.000000                 
11826.2          1                11826            0.000000 0.000000 89.400090 5.024491 0.000000                 
11827.1          1                11827            0.000000 0.000000 111.834097 1.770498 0.000000                 
11828.1          1                11828            0.000000 0.000000 81.864210 2.166757 0.000000                 
11828.2          1                11828            0.000000 0.000000 54.943226 2.166757 0.000000                 
11829.1          1                11829            0.000000 0.000000 224.236160 0.110333 0.000000                 
11830.1          1                11830            0.000000 0.000000 115.410808 4.997058 0.000000                 
11830.2          1                11830            0.000000 0.000000 84.960218 4.997058 0.000000                 
11831.1          1                11831            0.000000 0.000000 95.346053 5.537773 0.000000                 
11831.2          1                11831            0.000000 0.000000 103.824538 5.537773 0.000000                 
11832.1          1                11832            0.000000 0.000000 78.093323 5.003406 0.000000                 
11832.2          1                11832            0.000000 0.000000 110.718526 5.003406 0.000000                 
11833.1          1                11833            0.000000 0.000000 190.410163 2.470894 0.000000                 
11834.1          1                11834            0.000000 0.000000 60.472658 4.511414 0.000000                 
11834.2          1                11834            0.000000 0.000000 62.263354 4.511414 0.000000                 
11835.1          1                11835            0.000000 0.000000 72.287902 4.228459 0.000000                 
11835.2          1                11835            0.000000 0.000000 63.726750 4.228459 0.000000                 
11836.1          1                11836            0.000000 0.000000 110.490376 4.813457 0.000000                 
11836.2          1                11836            0.000000 0.000000 93.918147 4.813457 0.000000                 
11838.1          1                11838            0.000000 0.000000 92.948916 2.044062 0.000000                 
11839.1          1                11839            0.000000 0.000000 122.564912 0.901235 0.000000                 
11841.1          1                11841            0.000000 0.000000 140.703769 5.433283 0.000000                 
11842.1          1                11842            0.000000 0.000000 91.068911 5.403119 0.000000                 
11842.2          1                11842            0.000000 0.000000 81.104989 5.403119 0.000000                 
11843.1          1                11843            0.000000 0.000000 132.122883 0.126817 0.000000                 
12118.1          1                12118            0.000000 0.000000 271.572383 12.849379 0.000000                 
12118.2          1                12118            0.000000 0.000000 56.738636 12.849379 0.000000                 
12120.1          1                12120            0.000000 0.000000 213.458598 1.455106 0.000000                 
12122.1          1                12122            0.000000 0.000000 56.664367 1.234537 0.000000                 
12123.1          1                12123            0.000000 0.000000 83.650582 1.246942 0.000000                 
12124.1          1                12124            0.000000 0.000000 68.511492 0.985260 0.000000                 
12125.1          1                12125            0.000000 0.000000 107.800415 1.156201 0.000000                 
12125.2          1                12125            0.000000 0.000000 93.865837 1.156201 0.000000                 
12127.1          1                12127            0.000000 0.000000 82.615690 3.483455 0.000000                 
12128.1          1                12128            0.000000 0.000000 76.930729 1.306538 0.000000                 
12129.1          1                12129            0.000000 0.000000 79.108487 2.641994 0.000000                 
12129.2          1                12129            0.000000 0.000000 107.849379 2.641994 0.000000                 
12130.1          1                12130            0.000000 0.000000 89.771176 3.431619 0.000000                 
12130.2          1                12130            0.000000 0.000000 87.573580 3.431619 0.000000                 
12131.1          1                12131            0.000000 0.000000 117.811918 1.192385 0.000000                 
12131.2          1                12131            0.000000 0.000000 79.310721 1.192385 0.000000                 
12131.3          1                12131            0.000000 0.000000 66.861054 1.192385 0.000000                 
12132.1          1                12132            0.000000 0.000000 101.233530 1.012371 0.000000                 
12132.2          1                12132            0.000000 0.000000 107.913890 1.012371 0.000000                 
12134.1          1                12134            0.000000 0.000000 54.111281 1.165689 0.000000                 
12134.2          1                12134            0.000000 0.000000 65.216685 1.165689 0.000000                 
12136.1          1                12136            0.000000 0.000000 41.997071 1.477346 0.000000                 
12136.2          1                12136            0.000000 0.000000 47.899436 1.477346 0.000000                 
12137.1          1                12137            0.000000 0.000000 111.647074 0.985886 0.000000                 
12137.2          1                12137            0.000000 0.000000 111.821582 0.985886 0.000000                 
12139.1          1                12139            0.000000 0.000000 105.916751 0.777414 0.000000                 
12139.2          1                12139            0.000000 0.000000 88.192767 0.777414 0.000000                 
12140.1          1                12140            0.000000 0.000000 63.969184 0.000000 0.000000                 
12140.2          1                12140            0.000000 0.000000 68.859252 0.000000 0.000000                 
12141.1          1                12141            0.000000 0.000000 69.308743 1.034566 0.000000                 
12141.2          1                12141            0.000000 0.000000 80.559835 1.034566 0.000000                 
12142.1          1                12142            0.000000 0.000000 88.553110 1.629239 0.000000                 
12142.2          1                12142            0.000000 0.000000 102.741942 1.629239 0.000000                 
12145.1          1                12145            0.000000 0.000000 223.726844 1.367107 0.000000                 
12151.1          1                12151            0.000000 0.000000 82.371324 0.505146 0.000000                 
12152.1          1                12152            0.000000 0.000000 99.678934 1.053023 0.000000                 
12152.2          1                12152            0.000000 0.000000 108.730837 1.053023 0.000000                 
12153.1          1                12153            0.000000 0.000000 97.407401 1.701456 0.000000                 
12153.2          1                12153            0.000000 0.000000 91.153311 1.701456 0.000000                 
12154.1          1                12154            0.000000 0.000000 79.278186 1.142862 0.000000                 
12154.2          1                12154            0.000000 0.000000 88.789394 1.142862 0.000000                 
12155.1          1                12155            0.000000 0.000000 74.648521 0.989695 0.000000                 
12155.2          1                12155            0.000000 0.000000 94.569450 0.989695 0.000000                 
12156.1          1                12156            0.000000 0.000000 81.269498 1.870392 0.000000                 
12156.2          1                12156            0.000000 0.000000 110.425398 1.870392 0.000000                 
12156.3          1                12156            0.000000 0.000000 90.410026 1.870392 0.000000                 
12157.1          1                12157            0.000000 0.000000 106.191572 1.513069 0.000000                 
12157.2          1                12157            0.000000 0.000000 95.625240 1.513069 0.000000                 
12158.1          1                12158            0.000000 0.000000 104.487605 1.772427 0.000000                 
12158.2          1                12158            0.000000 0.000000 96.726270 1.772427 0.000000                 
12159.1          1                12159            0.000000 0.000000 55.613838 3.050103 0.000000                 
12159.2          1                12159            0.000000 0.000000 47.643234 3.050103 0.000000                 
12161.1          1                12161            0.000000 0.000000 94.525983 1.442342 0.000000                 
12161.2          1                12161            0.000000 0.000000 92.265441 1.442342 0.000000                 
12162.1          1                12162            0.000000 0.000000 49.637727 2.647455 0.000000                 
12164.1          1                12164            0.000000 0.000000 90.801821 1.446552 0.000000                 
12164.2          1                12164            0.000000 0.000000 86.553016 1.446552 0.000000                 
12166.1          1                12166            0.000000 0.000000 79.837738 1.017803 0.000000                 
12166.2          1                12166            0.000000 0.000000 57.030584 1.017803 0.000000                 
12168.1          1                12168            0.000000 0.000000 56.567935 1.049674 0.000000                 
12168.2          1                12168            0.000000 0.000000 61.729795 1.049674 0.000000                 
12169.1          1                12169            0.000000 0.000000 91.462135 1.000899 0.000000                 
12169.2          1                12169            0.000000 0.000000 95.539246 1.000899 0.000000                 
12170.1          1                12170            0.000000 0.000000 108.842240 1.965804 0.000000                 
12170.2          1                12170            0.000000 0.000000 107.450336 1.965804 0.000000                 
12171.1          1                12171            0.000000 0.000000 76.943985 5.185842 0.000000                 
12173.1          1                12173            0.000000 0.000000 85.030602 1.508245 0.000000                 
12173.2          1                12173            0.000000 0.000000 57.340082 1.508245 0.000000                 
12174.1          1                12174            0.000000 0.000000 128.441196 1.692961 0.000000                 
12175.1          1                12175            0.000000 0.000000 70.503650 1.425365 0.000000                 
12175.2          1                12175            0.000000 0.000000 68.342272 1.425365 0.000000                 
12176.1          1                12176            0.000000 0.000000 86.107477 1.091307 0.000000                 
12176.2          1                12176            0.000000 0.000000 86.241076 1.091307 0.000000                 
12177.1          1                12177            0.000000 0.000000 67.053997 1.001431 0.000000                 
12177.2          1                12177            0.000000 0.000000 87.775286 1.001431 0.000000                 
12178.1          1                12178            0.000000 0.000000 95.820404 1.339137 0.000000                 
12178.2          1                12178            0.000000 0.000000 62.738683 1.339137 0.000000                 
12178.3          1                12178            0.000000 0.000000 50.078678 1.339137 0.000000                 
12191.1          1                12191            0.000000 0.000000 853.471078 0.938088 0.000000                 
12594.1          1                12594            0.000000 0.000000 56.312665 1.680950 0.000000                 
12604.1          1                12604            0.000000 0.000000 82.936439 2.325234 0.000000                 
12609.1          1                12609            0.000000 0.000000 74.865677 3.184216 0.000000                 
12610.1          1                12610            0.000000 0.000000 105.799145 0.998860 0.000000                 
12610.2          1                12610            0.000000 0.000000 96.597117 0.998860 0.000000                 
12611.1          1                12611            0.000000 0.000000 179.962860 1.480469 0.000000                 
12612.1          1                12612            0.000000 0.000000 71.304347 0.770083 0.000000                 
12612.2          1                12612            0.000000 0.000000 84.833173 0.770083 0.000000                 
12614.1          1                12614            0.000000 0.000000 112.758316 1.509785 0.000000                 
12614.2          1                12614            0.000000 0.000000 85.602120 1.509785 0.000000                 
12615.1          1                12615            0.000000 0.000000 110.841604 3.524387 0.000000                 
12616.1          1                12616            0.000000 0.000000 87.594883 1.002607 0.000000                 
12616.2          1                12616            0.000000 0.000000 96.931506 1.002607 0.000000                 
12619.1          1                12619            0.000000 0.000000 138.589271 1.232706 0.000000                 
12620.1          1                12620            0.000000 0.000000 123.813787 1.182411 0.000000                 
12621.1          1                12621            0.000000 0.000000 94.233970 0.827775 0.000000                 
12621.2          1                12621            0.000000 0.000000 83.746731 0.827775 0.000000                 
12623.1          1                12623            0.000000 0.000000 98.412893 0.912704 0.000000                 
12623.2          1                12623            0.000000 0.000000 111.010386 0.912704 0.000000                 
12624.1          1                12624            0.000000 0.000000 79.661950 1.413374 0.000000                 
12624.2          1                12624            0.000000 0.000000 77.991627 1.413374 0.000000                 
12624.3          1                12624            0.000000 0.000000 110.591630 1.413374 0.000000                 
12624.4          1                12624            0.000000 0.000000 106.657384 1.413374 0.000000                 
12625.1          1                12625            0.000000 0.000000 84.245819 4.929070 0.000000                 
12626.1          1                12626            0.000000 0.000000 186.930551 1.305660 0.000000                 
12627.1          1                12627            0.000000 0.000000 95.871790 0.564742 0.000000                 
12627.2          1                12627            0.000000 0.000000 81.764715 0.564742 0.000000                 
12629.1          1                12629            0.000000 0.000000 195.963675 1.500775 0.000000                 
12630.1          1                12630            0.000000 0.000000 126.446808 1.427430 0.000000                 
12630.2          1                12630            0.000000 0.000000 92.503400 1.427430 0.000000                 
12631.1          1                12631            0.000000 0.000000 109.362960 1.123186 0.000000                 
12631.2          1                12631            0.000000 0.000000 93.016763 1.123186 0.000000                 
12632.1          1                12632            0.000000 0.000000 122.112458 1.645402 0.000000                 
12632.2          1                12632            0.000000 0.000000 102.441320 1.645402 0.000000                 
12632.3          1                12632            0.000000 0.000000 78.025540 1.645402 0.000000                 
12632.4          1                12632            0.000000 0.000000 92.734106 1.645402 0.000000                 
12633.1          1                12633            0.000000 0.000000 44.903275 1.609019 0.000000                 
12633.2          1                12633            0.000000 0.000000 127.364054 1.609019 0.000000                 
12634.1          1                12634            0.000000 0.000000 56.101442 0.680002 0.000000                 
12635.1          1                12635            0.000000 0.000000 144.758674 0.834206 0.000000                 
12636.1          1                12636            0.000000 0.000000 87.611144 2.706127 0.000000                 
12636.2          1                12636            0.000000 0.000000 100.904133 2.706127 0.000000                 
12637.1          1                12637            0.000000 0.000000 91.869845 2.312449 0.000000                 
12637.2          1                12637            0.000000 0.000000 124.341905 2.312449 0.000000                 