[OPTIONS]
;Option and Files Scenario Set: BASE
FLOW_UNITS	CFS
INFILTRATION	HORTON
FLOW_ROUTING	DYNWAVE
ALLOW_PONDING	NO
DRY_DAYS	5.000000
SKIP_STEADY_STATE 	NO
IGNORE_RAINFALL	NO
IGNORE_SNOWMELT	NO
IGNORE_GROUNDWATER	NO
IGNORE_QUALITY	NO
FORCE_MAIN_EQUATION	H-W
LINK_OFFSETS	DEPTH
MIN_SLOPE	0.000000
START_DATE	01/01/2002
START_TIME	00:00:00
END_DATE	01/01/2002
END_TIME	96:00:00
REPORT_START_DATE	01/01/2002
REPORT_START_TIME	00:00
SWEEP_START	01/01
SWEEP_END	12/31
WET_STEP	01:00:00
DRY_STEP	23:00:00
ROUTING_STEP	300
REPORT_STEP	00:05:00
INERTIAL_DAMPING	NONE
VARIABLE_STEP	0.750000
MINIMUM_STEP	0.5
LENGTHENING_STEP	0
MIN_SURFAREA	0.000000
NORMAL_FLOW_LIMITED	BOTH

[FILES]

[RAINGAGES]

[HYDROGRAPHS]

[TEMPERATURE]

[ADJUSTMENTS]

[SUBCATCHMENTS]

[SUBAREAS]

[INFILTRATION]

[AQUIFERS]

[GROUNDWATER]

[GWF]

[SNOWPACKS]

[JUNCTIONS]
; New Manhole
10	-10.000000	15.000000	0.000000	1000.000000	0.000000
; New Manhole
12	0.000000	12.000000	0.000000	1000.000000	0.000000
; New Manhole
16	0.000000	5.000000	0.000000	1000.000000	0.000000
; New Manhole
18	-5.000000	9.000000	0.000000	1000.000000	0.000000
; New Manhole
20	5.000000	2.000000	0.000000	1000.000000	0.000000
; New Manhole
22	0.000000	11.000000	0.000000	0.000000	0.000000
; New Manhole
26	0.000000	5.000000	0.000000	1000.000000	0.000000
; New Manhole
30	0.000000	5.000000	0.000000	1000.000000	0.000000
; New Manhole
36	1.000000	4.000000	0.000000	0.000000	0.000000
; New Manhole
40	0.000000	5.000000	0.000000	1000.000000	0.000000

[OUTFALLS]
; New Manhole
14	0.000000	FREE	NO

[DIVIDERS]
; Climate Set: BASE, New Manhole
24	0.000000	25	TABULAR	24_DIVERSION	5.000000	0.000000	0.000000	0.000000

[STORAGE]
8000	-5.000000	10.000000	1.000000	FUNCTIONAL	0.000000	0.000000	78.539816	0.000000	0.000000
; New Wet Well
8002	-5.000000	10.000000	1.000000	FUNCTIONAL	0.000000	0.000000	78.539816	0.000000	0.000000
; New Wet Well
9000	-5.000000	10.000000	1.000000	FUNCTIONAL	0.000000	0.000000	78.539816	0.000000	0.000000

[CONDUITS]
; New Pipe
11	10	20	104.256000	0.010000	0.000000	0.000000	0.000000	0.000000
; New Pipe
13	12	22	102.086000	0.010000	0.000000	0.000000	0.000000	0.000000
; New Pipe
17	16	18	77.428000	0.010000	0.000000	0.000000	0.000000	0.000000
; New Pipe
19	18	10	58.716000	0.010000	0.000000	0.000000	0.000000	0.000000
; New Pipe
21	20	12	94.425000	0.010000	0.000000	0.000000	0.000000	0.000000
; New Pipe
23	22	14	104.817000	0.013000	0.000000	0.000000	0.000000	0.000000
; New Pipe
25	24	9000	105.700000	0.012000	0.000000	0.000000	0.000000	0.000000
; New Pipe
31	26	30	149.927925	0.010000	0.000000	0.000000	0.000000	0.000000
; New Pipe
33	30	22	192.054769	0.010000	0.000000	0.000000	0.000000	0.000000
; New Pipe
35	24	8000	178.772000	0.012000	2.000000	0.000000	0.000000	0.000000
; New Pipe
43	40	24	84.229592	0.010000	0.000000	0.000000	0.000000	0.000000
; New Pipe
45	36	8002	60.879000	0.011000	0.000000	0.000000	0.000000	0.000000

[PUMPS]
; New Pump
5000	9000	16	PC_5000	ON	0.000000	0.000000
; New Pump
5002	8000	26	PC_5002	ON	0.000000	0.000000
; New Pump
5004	8002	40	PC_5004	ON	0.000000	0.000000

[ORIFICES]

[WEIRS]

[XSECTIONS]
11	FORCE_MAIN	1.000000	111.000000	0.000000	0.000000	1	0
13	FORCE_MAIN	1.000000	122.000000	0.000000	0.000000	1	0
17	FORCE_MAIN	1.000000	111.000000	0.000000	0.000000	1	0
19	FORCE_MAIN	1.000000	111.000000	0.000000	0.000000	1	0
21	FORCE_MAIN	1.000000	111.000000	0.000000	0.000000	1	0
23	CIRCULAR	1.000000	0.000000	0.000000	0.000000	1	0
25	RECT_CLOSED	1.000000	1.000000	0.000000	0.000000	1	0
31	FORCE_MAIN	1.000000	122.000000	0.000000	0.000000	1	0
33	FORCE_MAIN	1.000000	122.000000	0.000000	0.000000	1	0
35	CIRCULAR	5.000000	0.000000	0.000000	0.000000	1	0
43	FORCE_MAIN	0.250000	111.000000	0.000000	0.000000	1	0
45	CIRCULAR	3.000000	0.000000	0.000000	0.000000	1	0

[TRANSECTS]

[LOSSES]
11	0.000000	0.000000	0.000000	NO	0.000000
13	0.000000	0.000000	0.000000	NO	0.000000
17	0.000000	0.000000	0.000000	NO	0.000000
19	0.000000	0.000000	0.000000	NO	0.000000
21	0.000000	0.000000	0.000000	NO	0.000000
23	0.000000	0.000000	0.000000	NO	0.000000
25	0.000000	0.000000	0.000000	NO	0.000000
31	0.000000	0.000000	0.000000	NO	0.000000
33	0.000000	0.000000	0.000000	NO	0.000000
35	0.000000	0.000000	0.000000	NO	0.000000
43	0.000000	0.000000	0.000000	NO	0.000000
45	0.000000	0.000000	0.000000	NO	0.000000

[CONTROLS]

[POLLUTANTS]

[LANDUSES]

[COVERAGES]

[BUILDUP]

[WASHOFF]

[TREATMENT]

[INFLOWS]

[DWF]
36	FLOW	2.000000	""	""	""	""

[RDII]

[LOADINGS]

[CURVES]
; 
24_DIVERSION	DIVERSION	0.000000	0.000000
24_DIVERSION	100.000000	50.000000
24_DIVERSION	200.000000	100.000000
24_DIVERSION	300.000000	150.000000
24_DIVERSION	400.000000	200.000000
24_DIVERSION	500.000000	250.000000
24_DIVERSION	600.000000	300.000000
24_DIVERSION	700.000000	350.000000
24_DIVERSION	800.000000	400.000000
24_DIVERSION	900.000000	450.000000
; 
PC_5000	PUMP3	0.010000	5.000000
PC_5000	1000.000000	5.000000
PC_5000	10000.000000	5.000000
; 
PC_5002	PUMP3	0.010000	5.000000
PC_5002	1000.000000	5.000000
PC_5002	10000.000000	5.000000
; 
PC_5004	PUMP3	0.010000	11.000000
PC_5004	1000.000000	11.000000
PC_5004	10000.000000	11.000000

[TIMESERIES]

[PATTERNS]
; 
PATN1_LOAD	HOURLY	1.000000	2.000000	3.000000	2.000000	1.000000
PATN1_LOAD	0.000000	1.000000	2.000000	3.000000	2.000000
PATN1_LOAD	1.000000	0.000000	1.000000	2.000000	3.000000
PATN1_LOAD	2.000000	1.000000	0.000000	1.000000	2.000000
PATN1_LOAD	3.000000	2.000000	1.000000	0.000000

[REPORT]
;Report Option Set: BASE, Base Simulation Report
INPUT NO
CONTINUITY YES
FLOWSTATS YES
CONTROLS NO
SUBCATCHMENTS  ALL
NODES  ALL
LINKS  ALL

[COORDINATES]
10	-114.026718	397.900763
12	72.041985	328.244275
14	272.423664	276.717557
16	-247.578943	424.229606
18	-171.393591	410.415779
20	-16.511282	361.020880
22	171.021892	303.253965
24	-412.507673	569.484096
26	-79.275514	525.304566
30	53.037920	454.795433
36	-661.245779	632.137310
40	-492.035207	597.232887
8000	-235.091992	591.461283
8002	-601.301227	621.514225
9000	-332.136312	500.833559


[POLYGONS]

[VERTICES]


[SYMBOLS]

[MAP]
DIMENSIONS	-707.929251	258.946569	319.107136	649.908298

