[TITLE]
;;Project Title/Notes

[OPTIONS]
;;Option             Value
FLOW_UNITS           GPM
INFILTRATION         HORTON
FLOW_ROUTING         DYNWAVE
LINK_OFFSETS         DEPTH
MIN_SLOPE            0
ALLOW_PONDING        YES
SKIP_STEADY_STATE    NO

START_DATE           07/02/2009
START_TIME           18:00:00
REPORT_START_DATE    07/02/2009
REPORT_START_TIME    18:00:00
END_DATE             07/04/2009
END_TIME             00:00:00
SWEEP_START          01/01
SWEEP_END            12/31
DRY_DAYS             5.000000
REPORT_STEP          00:01:00
WET_STEP             00:15:00
DRY_STEP             00:15:00
ROUTING_STEP         0:00:30 

INERTIAL_DAMPING     PARTIAL
NORMAL_FLOW_LIMITED  SLOPE
FORCE_MAIN_EQUATION  H-W
VARIABLE_STEP        0.75
LENGTHENING_STEP     10
MIN_SURFAREA         12.557
MAX_TRIALS           8
HEAD_TOLERANCE       0.001
SYS_FLOW_TOL         5
LAT_FLOW_TOL         5
MINIMUM_STEP         0
THREADS              1

[EVAPORATION]
;;Data Source    Parameters
;;-------------- ----------------
CONSTANT         0.000000
DRY_ONLY         NO

[JUNCTIONS]
;;Name           Elevation  MaxDepth   InitDepth  SurDepth   Aponded   
;;-------------- ---------- ---------- ---------- ---------- ----------
A10B             1679.500000 9.300000   0.000000   0.000000   0.000000  
; Flow Monitor 04
A12              1694.700000 9.000000   0.000000   0.000000   0.000000  
A13              1695.260000 10.140000  0.000000   0.000000   0.000000  
A14              1695.780000 10.820000  0.000000   0.000000   0.000000  
A141             1695.740000 10.160000  0.000000   0.000000   0.000000  
A1410            1724.960000 10.040000  0.000000   0.000000   0.000000  
A1411            1730.080000 9.920000   0.000000   0.000000   0.000000  
A1412            1734.100000 11.300000  0.000000   0.000000   0.000000  
A1413            1740.260000 11.140000  0.000000   0.000000   0.000000  
A1414            1745.300000 10.000000  0.000000   0.000000   0.000000  
A1415            1749.990000 11.910000  0.000000   0.000000   0.000000  
A142             1698.110000 8.890000   0.000000   0.000000   0.000000  
A143             1699.520000 8.480000   0.000000   0.000000   0.000000  
A144             1700.930000 8.670000   0.000000   0.000000   0.000000  
A145             1702.390000 10.310000  0.000000   0.000000   0.000000  
A146             1707.280000 9.320000   0.000000   0.000000   0.000000  
A147             1713.440000 9.560000   0.000000   0.000000   0.000000  
A148             1716.640000 10.360000  0.000000   0.000000   0.000000  
A149             1719.840000 10.160000  0.000000   0.000000   0.000000  
A15              1695.900000 10.600000  0.000000   0.000000   0.000000  
A15A             1696.590000 9.610000   0.000000   0.000000   0.000000  
A16              1697.300000 7.400000   0.000000   0.000000   0.000000  
A16A             1697.280000 7.520000   0.000000   0.000000   0.000000  
A17              1698.170000 7.130000   0.000000   0.000000   0.000000  
A18              1698.800000 7.700000   0.000000   0.000000   0.000000  
A19              1699.420000 8.580000   0.000000   0.000000   0.000000  
A20              1700.180000 8.920000   0.000000   0.000000   0.000000  
A21              1700.920000 10.280000  0.000000   0.000000   0.000000  
A22              1702.040000 9.960000   0.000000   0.000000   0.000000  
A23              1703.290000 11.210000  0.000000   0.000000   0.000000  
A24              1704.390000 11.610000  0.000000   0.000000   0.000000  
A25              1705.220000 11.080000  0.000000   0.000000   0.000000  
A26              1706.050000 12.150000  0.000000   0.000000   0.000000  
A27              1706.880000 10.720000  0.000000   0.000000   0.000000  
A28              1708.160000 4.640000   0.000000   0.000000   0.000000  
AA6              1693.140000 7.860000   0.000000   0.000000   0.000000  
ACD3             1879.180000 13.030000  0.000000   0.000000   0.000000  
AG38             2195.770000 24.230000  0.000000   0.000000   0.000000  
AGS8             2234.650000 6.350000   0.000000   0.000000   0.000000  
AGS9             2235.400000 8.600000   0.000000   0.000000   0.000000  
AME1             1837.600000 15.600000  0.000000   0.000000   0.000000  
BDS10            2307.470000 11.060000  0.000000   0.000000   0.000000  
BDS101           2355.400000 6.900000   0.000000   0.000000   0.000000  
BDS103           2357.680000 8.520000   0.000000   0.000000   0.000000  
BDS105           2173.320000 10.410000  0.000000   0.000000   0.000000  
BDS106           2181.600000 10.240000  0.000000   0.000000   0.000000  
BDS107           2186.330000 12.460000  0.000000   0.000000   0.000000  
BDS108           2189.120000 11.700000  0.000000   0.000000   0.000000  
BDS109           2191.830000 11.260000  0.000000   0.000000   0.000000  
BDS11            2312.530000 12.380000  0.000000   0.000000   0.000000  
BDS110           2193.520000 11.480000  0.000000   0.000000   0.000000  
BDS111           2195.390000 10.850000  0.000000   0.000000   0.000000  
BDS112           2200.000000 10.390000  0.000000   0.000000   0.000000  
; Robindale Haven
BDS113           2210.020000 10.560000  0.000000   0.000000   0.000000  
BDS114           2214.580000 10.490000  0.000000   0.000000   0.000000  
BDS115           2219.150000 10.200000  0.000000   0.000000   0.000000  
BDS116           2221.100000 14.400000  0.000000   0.000000   0.000000  
BDS117           2223.000000 10.040000  0.000000   0.000000   0.000000  
BDS118           2224.580000 10.110000  0.000000   0.000000   0.000000  
BDS119           2234.000000 18.900000  0.000000   0.000000   0.000000  
BDS12            2320.070000 11.280000  0.000000   0.000000   0.000000  
BDS120           2237.980000 8.020000   0.000000   0.000000   0.000000  
BDS121           2244.820000 12.180000  0.000000   0.000000   0.000000  
BDS122           2246.830000 12.110000  0.000000   0.000000   0.000000  
BDS123           2249.900000 11.350000  0.000000   0.000000   0.000000  
BDS124           2256.370000 13.800000  0.000000   0.000000   0.000000  
BDS125           2263.150000 10.480000  0.000000   0.000000   0.000000  
BDS125A          2263.410000 10.420000  0.000000   0.000000   0.000000  
BDS126           2265.520000 14.200000  0.000000   0.000000   0.000000  
BDS13            2321.920000 13.870000  0.000000   0.000000   0.000000  
BDS14            2322.760000 14.550000  0.000000   0.000000   0.000000  
BDS15            2323.380000 13.920000  0.000000   0.000000   0.000000  
BDS16            2323.830000 13.470000  0.000000   0.000000   0.000000  
BDS17            2324.220000 13.530000  0.000000   0.000000   0.000000  
BDS18            2325.060000 12.620000  0.000000   0.000000   0.000000  
BDS19            2325.900000 10.800000  0.000000   0.000000   0.000000  
BDS193           2265.410000 14.190000  0.000000   0.000000   0.000000  
BDS194           2265.930000 12.270000  0.000000   0.000000   0.000000  
BDS195           2266.640000 11.860000  0.000000   0.000000   0.000000  
BDS196           2267.370000 12.930000  0.000000   0.000000   0.000000  
BDS197           2268.170000 12.530000  0.000000   0.000000   0.000000  
BDS198           2268.960000 7.740000   0.000000   0.000000   0.000000  
BDS199           2269.380000 7.920000   0.000000   0.000000   0.000000  
BDS2             2269.800000 9.550000   0.000000   0.000000   0.000000  
BDS200           2269.580000 9.320000   0.000000   0.000000   0.000000  
BDS201           2275.320000 9.180000   0.000000   0.000000   0.000000  
BDS3             2271.180000 12.270000  0.000000   0.000000   0.000000  
BDS4             2272.880000 11.110000  0.000000   0.000000   0.000000  
BDS5             2277.940000 11.490000  0.000000   0.000000   0.000000  
BDS6             2285.350000 10.660000  0.000000   0.000000   0.000000  
BDS7             2287.980000 15.550000  0.000000   0.000000   0.000000  
BDS8             2300.690000 9.770000   0.000000   0.000000   0.000000  
BDS86            2327.750000 10.850000  0.000000   0.000000   0.000000  
BDS87            2329.580000 10.920000  0.000000   0.000000   0.000000  
BDS89            2333.100000 10.000000  0.000000   0.000000   0.000000  
BDS9             2305.750000 10.940000  0.000000   0.000000   0.000000  
BDS91            2336.200000 10.700000  0.000000   0.000000   0.000000  
BDS93            2339.500000 11.100000  0.000000   0.000000   0.000000  
BDS95            2343.550000 10.850000  0.000000   0.000000   0.000000  
BDS99            2351.700000 6.800000   0.000000   0.000000   0.000000  
BEL1             2222.100000 8.500000   0.000000   0.000000   0.000000  
BER44            2215.180000 13.520000  0.000000   0.000000   0.000000  
BER45            2215.600000 12.480000  0.000000   0.000000   0.000000  
BER46            2216.830000 12.170000  0.000000   0.000000   0.000000  
BER46A           2216.960000 13.040000  0.000000   0.000000   0.000000  
BER47            2217.320000 12.680000  0.000000   0.000000   0.000000  
BER47A           2217.630000 12.250000  0.000000   0.000000   0.000000  
BER48            2218.640000 10.360000  0.000000   0.000000   0.000000  
BER49            2221.540000 9.240000   0.000000   0.000000   0.000000  
BPS1             2238.280000 11.590000  0.000000   0.000000   0.000000  
BPT1             2244.040000 8.820000   0.000000   0.000000   0.000000  
BPT2             2250.630000 6.500000   0.000000   0.000000   0.000000  
BPT2A            2252.840000 6.860000   0.000000   0.000000   0.000000  
BPY1             2219.540000 10.790000  0.000000   0.000000   0.000000  
BS10             2171.330000 23.070000  0.000000   0.000000   0.000000  
BS11             2173.100000 23.200000  0.000000   0.000000   0.000000  
BS12             2174.870000 21.930000  0.000000   0.000000   0.000000  
BS13             2176.640000 24.860000  0.000000   0.000000   0.000000  
BS14             2178.400000 25.600000  0.000000   0.000000   0.000000  
BS15             2180.180000 25.320000  0.000000   0.000000   0.000000  
BS16             2191.620000 14.280000  0.000000   0.000000   0.000000  
BS17             2193.410000 15.090000  0.000000   0.000000   0.000000  
BS18             2195.320000 14.880000  0.000000   0.000000   0.000000  
BS19             2196.580000 14.520000  0.000000   0.000000   0.000000  
BS49             2166.420000 14.840000  0.000000   0.000000   0.000000  
BUC1             2094.190000 15.040000  0.000000   0.000000   0.000000  
BUC2             2101.080000 8.420000   0.000000   0.000000   0.000000  
BUC23            2110.050000 15.870000  0.000000   0.000000   0.000000  
BUC25            2111.090000 16.290000  0.000000   0.000000   0.000000  
BUC27            2112.840000 12.160000  0.000000   0.000000   0.000000  
BUC3             2101.760000 6.860000   0.000000   0.000000   0.000000  
BUC30            2114.550000 9.950000   0.000000   0.000000   0.000000  
BUC35            2111.630000 10.850000  0.000000   0.000000   0.000000  
BUC4             2102.120000 6.480000   0.000000   0.000000   0.000000  
BUC5             2104.320000 5.970000   0.000000   0.000000   0.000000  
BUC6             2107.970000 8.820000   0.000000   0.000000   0.000000  
BUC7             2108.970000 12.540000  0.000000   0.000000   0.000000  
BV23             1883.030000 6.620000   0.000000   0.000000   0.000000  
BV24             1886.610000 7.760000   0.000000   0.000000   0.000000  
BV25             1897.520000 8.080000   0.000000   0.000000   0.000000  
BV26             1899.400000 5.840000   0.000000   0.000000   0.000000  
BV27             1903.500000 5.980000   0.000000   0.000000   0.000000  
BV28             1909.420000 5.830000   0.000000   0.000000   0.000000  
BV54             1913.230000 6.270000   0.000000   0.000000   0.000000  
BV55             1917.250000 6.150000   0.000000   0.000000   0.000000  
BV56             1923.970000 7.130000   0.000000   0.000000   0.000000  
BV57             1936.840000 6.900000   0.000000   0.000000   0.000000  
BVO1             1879.480000 13.920000  0.000000   0.000000   0.000000  
BVO2             1880.780000 5.620000   0.000000   0.000000   0.000000  
BVO3             1881.540000 3.760000   0.000000   0.000000   0.000000  
BVO4             1882.320000 5.180000   0.000000   0.000000   0.000000  
BVO5             1883.100000 6.900000   0.000000   0.000000   0.000000  
CAN35            2374.780000 10.520000  0.000000   0.000000   0.000000  
CAN36            2375.290000 10.510000  0.000000   0.000000   0.000000  
CAN37            2375.750000 10.450000  0.000000   0.000000   0.000000  
CAN40            2376.220000 8.980000   0.000000   0.000000   0.000000  
CAN41            2376.830000 5.470000   0.000000   0.000000   0.000000  
CAN42            2377.320000 6.180000   0.000000   0.000000   0.000000  
CAN44            2377.780000 7.920000   0.000000   0.000000   0.000000  
CB100            2254.730000 8.170000   0.000000   0.000000   0.000000  
CB101            2259.910000 7.890000   0.000000   0.000000   0.000000  
CC54             2299.370000 11.230000  0.000000   0.000000   0.000000  
CC58             2305.100000 13.000000  0.000000   0.000000   0.000000  
CC62             2305.890000 8.310000   0.000000   0.000000   0.000000  
CC63             2306.980000 6.420000   0.000000   0.000000   0.000000  
CC64             2308.580000 7.320000   0.000000   0.000000   0.000000  
CC66             2310.110000 8.890000   0.000000   0.000000   0.000000  
CC68             2310.950000 9.550000   0.000000   0.000000   0.000000  
CC80             2311.550000 8.650000   0.000000   0.000000   0.000000  
CC82             2312.250000 7.150000   0.000000   0.000000   0.000000  
CC84             2312.950000 5.550000   0.000000   0.000000   0.000000  
CC92             2313.600000 4.100000   0.000000   0.000000   0.000000  
CC93             2313.944000 3.356000   0.000000   0.000000   0.000000  
CC94             2314.380000 4.020000   0.000000   0.000000   0.000000  
CC95             2314.880000 5.220000   0.000000   0.000000   0.000000  
CEE4             1945.900000 12.600000  0.000000   0.000000   0.000000  
CON1             2068.710000 12.590000  0.000000   0.000000   0.000000  
CON2             2068.120000 11.380000  0.000000   0.000000   0.000000  
CON3             2066.280000 10.920000  0.000000   0.000000   0.000000  
CON4             2065.200000 10.800000  0.000000   0.000000   0.000000  
CON5             2063.790000 10.510000  0.000000   0.000000   0.000000  
COU1             2141.860000 15.740000  0.000000   0.000000   0.000000  
CP100            2157.690000 9.210000   0.000000   0.000000   0.000000  
CP101            2158.120000 8.880000   0.000000   0.000000   0.000000  
CP102            2159.390000 10.610000  0.000000   0.000000   0.000000  
CP103            2159.600000 10.500000  0.000000   0.000000   0.000000  
CP104            2159.920000 10.580000  0.000000   0.000000   0.000000  
CP105            2161.810000 8.890000   0.000000   0.000000   0.000000  
CP106            2162.960000 7.640000   0.000000   0.000000   0.000000  
CP107            2163.850000 4.850000   0.000000   0.000000   0.000000  
CP108            2164.670000 15.130000  0.000000   0.000000   0.000000  
CP109            2165.220000 5.280000   0.000000   0.000000   0.000000  
CQ1              1902.400000 11.800000  0.000000   0.000000   0.000000  
CRS11            1937.020000 11.980000  0.000000   0.000000   0.000000  
CS35             1872.420000 12.270000  0.000000   0.000000   0.000000  
CSP7B            2092.550000 5.820000   0.000000   0.000000   0.000000  
CSP7C            2093.480000 6.290000   0.000000   0.000000   0.000000  
CSR1             1894.820000 10.880000  0.000000   0.000000   0.000000  
CSS1             2209.550000 9.450000   0.000000   0.000000   0.000000  
CSS2             2213.730000 7.670000   0.000000   0.000000   0.000000  
CYS1             2078.940000 11.060000  0.000000   0.000000   0.000000  
CYS106           2150.700000 12.600000  0.000000   0.000000   0.000000  
CYS11            2115.000000 10.800000  0.000000   0.000000   0.000000  
CYS12            2116.480000 9.820000   0.000000   0.000000   0.000000  
CYS13            2117.720000 9.280000   0.000000   0.000000   0.000000  
CYS138           2151.400000 11.200000  0.000000   0.000000   0.000000  
CYS14            2119.560000 9.240000   0.000000   0.000000   0.000000  
CYS141           2151.770000 10.030000  0.000000   0.000000   0.000000  
CYS15            2122.930000 7.970000   0.000000   0.000000   0.000000  
CYS151           2151.950000 10.450000  0.000000   0.000000   0.000000  
CYS154           2152.370000 11.230000  0.000000   0.000000   0.000000  
CYS156           2152.750000 11.950000  0.000000   0.000000   0.000000  
CYS16            2127.390000 7.010000   0.000000   0.000000   0.000000  
CYS160           2153.580000 15.120000  0.000000   0.000000   0.000000  
CYS161           2154.440000 12.160000  0.000000   0.000000   0.000000  
CYS190           2158.110000 8.590000   0.000000   0.000000   0.000000  
CYS2             2080.730000 9.470000   0.000000   0.000000   0.000000  
CYS215           2155.820000 12.680000  0.000000   0.000000   0.000000  
CYS216           2154.760000 6.240000   0.000000   0.000000   0.000000  
CYS217           2156.700000 13.100000  0.000000   0.000000   0.000000  
CYS219           2157.490000 11.410000  0.000000   0.000000   0.000000  
CYS221           2159.330000 9.770000   0.000000   0.000000   0.000000  
CYS242           2158.440000 11.060000  0.000000   0.000000   0.000000  
CYS243           2163.030000 8.470000   0.000000   0.000000   0.000000  
CYS244           2165.460000 9.740000   0.000000   0.000000   0.000000  
CYS245           2170.020000 11.080000  0.000000   0.000000   0.000000  
CYS3             2082.950000 8.250000   0.000000   0.000000   0.000000  
CYS369           2172.710000 9.890000   0.000000   0.000000   0.000000  
CYS4             2086.200000 11.400000  0.000000   0.000000   0.000000  
CYS43            2129.030000 7.570000   0.000000   0.000000   0.000000  
CYS44            2133.860000 10.040000  0.000000   0.000000   0.000000  
CYS5             2088.810000 13.990000  0.000000   0.000000   0.000000  
CYS54            2135.770000 7.030000   0.000000   0.000000   0.000000  
CYS6             2090.830000 18.170000  0.000000   0.000000   0.000000  
CYS61            2142.290000 14.410000  0.000000   0.000000   0.000000  
CYS62            2143.700000 16.400000  0.000000   0.000000   0.000000  
CYS63            2145.200000 13.300000  0.000000   0.000000   0.000000  
CYS90            2145.580000 12.420000  0.000000   0.000000   0.000000  
CYS91            2147.110000 11.490000  0.000000   0.000000   0.000000  
CYS93            2149.020000 11.080000  0.000000   0.000000   0.000000  
CYS98            2149.990000 11.910000  0.000000   0.000000   0.000000  
CYS98A           2153.240000 5.860000   0.000000   0.000000   0.000000  
CYS98B           2153.830000 4.870000   0.000000   0.000000   0.000000  
CYS98C           2154.510000 5.290000   0.000000   0.000000   0.000000  
CYS98D           2155.400000 5.800000   0.000000   0.000000   0.000000  
CYS98E           2156.280000 6.020000   0.000000   0.000000   0.000000  
CYS98F           2156.650000 5.650000   0.000000   0.000000   0.000000  
CYS98G           2157.490000 8.810000   0.000000   0.000000   0.000000  
DH131            1707.010000 7.690000   0.000000   0.000000   0.000000  
DH150            1752.410000 10.990000  0.000000   0.000000   0.000000  
DH151            1756.480000 10.920000  0.000000   0.000000   0.000000  
DH152            1760.620000 9.980000   0.000000   0.000000   0.000000  
DH153            1766.840000 29.960000  0.000000   0.000000   0.000000  
DH154            1772.800000 10.000000  0.000000   0.000000   0.000000  
DH155            1780.720000 9.980000   0.000000   0.000000   0.000000  
DH156            1786.050000 10.050000  0.000000   0.000000   0.000000  
DH159            1834.420000 10.580000  0.000000   0.000000   0.000000  
DH160            1852.250000 11.250000  0.000000   0.000000   0.000000  
DH228            1729.190000 9.950000   0.000000   0.000000   0.000000  
DH242            1727.840000 11.830000  0.000000   0.000000   0.000000  
DH271            1733.620000 10.380000  0.000000   0.000000   0.000000  
DH282            1735.610000 10.890000  0.000000   0.000000   0.000000  
DOM1             2206.830000 15.170000  0.000000   0.000000   0.000000  
DOM10            2228.340000 12.860000  0.000000   0.000000   0.000000  
DOM11            2232.840000 12.760000  0.000000   0.000000   0.000000  
DOM12            2237.340000 12.660000  0.000000   0.000000   0.000000  
DOM13            2241.140000 12.260000  0.000000   0.000000   0.000000  
DOM14            2246.990000 12.610000  0.000000   0.000000   0.000000  
DOM15            2250.790000 12.210000  0.000000   0.000000   0.000000  
DOM16            2256.390000 12.610000  0.000000   0.000000   0.000000  
DOM17            2262.390000 12.310000  0.000000   0.000000   0.000000  
DOM18            2264.350000 15.950000  0.000000   0.000000   0.000000  
DOM19            2265.220000 14.480000  0.000000   0.000000   0.000000  
DOM2             2208.830000 15.670000  0.000000   0.000000   0.000000  
DOM20            2266.250000 14.450000  0.000000   0.000000   0.000000  
DOM21            2267.350000 11.650000  0.000000   0.000000   0.000000  
DOM22            2268.800000 7.200000   0.000000   0.000000   0.000000  
DOM23            2273.650000 8.250000   0.000000   0.000000   0.000000  
DOM24            2276.850000 9.150000   0.000000   0.000000   0.000000  
DOM3             2210.630000 13.370000  0.000000   0.000000   0.000000  
DOM4             2212.630000 9.870000   0.000000   0.000000   0.000000  
DOM5             2214.430000 10.570000  0.000000   0.000000   0.000000  
DOM6             2216.650000 8.850000   0.000000   0.000000   0.000000  
DOM7             2216.890000 8.110000   0.000000   0.000000   0.000000  
DOM8             2218.890000 12.610000  0.000000   0.000000   0.000000  
DOM9             2223.840000 12.460000  0.000000   0.000000   0.000000  
DWA1             2239.800000 12.600000  0.000000   0.000000   0.000000  
DY23             2058.890000 4.910000   0.000000   0.000000   0.000000  
DY23A            2060.720000 9.780000   0.000000   0.000000   0.000000  
DY23B            2062.010000 7.790000   0.000000   0.000000   0.000000  
DY24             2057.050000 6.250000   0.000000   0.000000   0.000000  
EA1              2016.290000 5.810000   0.000000   0.000000   0.000000  
EA10             2025.670000 14.730000  0.000000   0.000000   0.000000  
EA11             2025.770000 15.030000  0.000000   0.000000   0.000000  
EA12             2026.860000 11.940000  0.000000   0.000000   0.000000  
EA13             2026.930000 11.370000  0.000000   0.000000   0.000000  
EA14             2027.009000 10.591000  0.000000   0.000000   0.000000  
EA16             2028.410000 8.390000   0.000000   0.000000   0.000000  
EA16A            2026.150000 14.850000  0.000000   0.000000   0.000000  
EA16B            2025.390000 12.910000  0.000000   0.000000   0.000000  
EA16C            2024.430000 11.570000  0.000000   0.000000   0.000000  
EA16D            2024.100000 11.700000  0.000000   0.000000   0.000000  
EA16E            2024.080000 11.700000  0.000000   0.000000   0.000000  
EA17             2037.300000 6.500000   0.000000   0.000000   0.000000  
EA18             2039.700000 6.700000   0.000000   0.000000   0.000000  
EA2              2017.500000 7.500000   0.000000   0.000000   0.000000  
EA21             2044.890000 6.910000   0.000000   0.000000   0.000000  
EA2A             2018.110000 8.190000   0.000000   0.000000   0.000000  
EA2B             2019.670000 8.870000   0.000000   0.000000   0.000000  
EA3              2019.990000 6.510000   0.000000   0.000000   0.000000  
EA4              2020.470000 9.330000   0.000000   0.000000   0.000000  
EA5              2021.960000 7.140000   0.000000   0.000000   0.000000  
EA6              2022.590000 7.810000   0.000000   0.000000   0.000000  
EA7              2024.110000 8.290000   0.000000   0.000000   0.000000  
EA8              2024.800000 8.500000   0.000000   0.000000   0.000000  
EA9              2025.480000 11.220000  0.000000   0.000000   0.000000  
EE1              1891.130000 11.770000  0.000000   0.000000   0.000000  
EES1             1756.440000 14.190000  0.000000   0.000000   0.000000  
EEV1             1858.620000 12.080000  0.000000   0.000000   0.000000  
EFL47            2019.130000 12.870000  0.000000   0.000000   0.000000  
EFL47A           2020.970000 10.030000  0.000000   0.000000   0.000000  
; Flow Monitor 16
EFL48            2022.960000 11.180000  0.000000   0.000000   0.000000  
EFL49            2025.060000 13.750000  0.000000   0.000000   0.000000  
EFL50            2025.950000 12.380000  0.000000   0.000000   0.000000  
EG1              2046.300000 6.200000   0.000000   0.000000   0.000000  
EG2              2050.900000 6.010000   0.000000   0.000000   0.000000  
EG3              2054.900000 6.320000   0.000000   0.000000   0.000000  
EG4              2062.690000 6.010000   0.000000   0.000000   0.000000  
EPS17            2132.920000 6.280000   0.000000   0.000000   0.000000  
EPS17A           2133.680000 7.720000   0.000000   0.000000   0.000000  
EPS18            2135.070000 7.630000   0.000000   0.000000   0.000000  
EPS18A           2136.380000 7.120000   0.000000   0.000000   0.000000  
EPS18B           2136.850000 7.150000   0.000000   0.000000   0.000000  
EPS19            2136.960000 7.240000   0.000000   0.000000   0.000000  
EPV8             1863.440000 15.160000  0.000000   0.000000   0.000000  
ET18             1804.690000 12.810000  0.000000   0.000000   0.000000  
ET1A             1786.460000 8.440000   0.000000   0.000000   0.000000  
ET2A             1792.600000 8.250000   0.000000   0.000000   0.000000  
ET9              1796.610000 7.100000   0.000000   0.000000   0.000000  
ET9A             1796.330000 7.170000   0.000000   0.000000   0.000000  
EXP1             2182.590000 22.510000  0.000000   0.000000   0.000000  
EXP14            2193.170000 14.430000  0.000000   0.000000   0.000000  
EXP2             2183.590000 20.310000  0.000000   0.000000   0.000000  
EXP3             2184.730000 18.270000  0.000000   0.000000   0.000000  
EXP4             2185.720000 16.280000  0.000000   0.000000   0.000000  
EXP5             2186.710000 14.190000  0.000000   0.000000   0.000000  
EXP6             2188.510000 10.690000  0.000000   0.000000   0.000000  
EXP6A            2189.200000 9.300000   0.000000   0.000000   0.000000  
EXP6B            2191.510000 5.590000   0.000000   0.000000   0.000000  
FAS11            2167.110000 11.790000  0.000000   0.000000   0.000000  
FAS12            2169.150000 10.650000  0.000000   0.000000   0.000000  
FAS13            2169.980000 11.120000  0.000000   0.000000   0.000000  
FAS14            2172.000000 10.900000  0.000000   0.000000   0.000000  
FAS15            2173.710000 12.260000  0.000000   0.000000   0.000000  
FAS16            2174.260000 11.940000  0.000000   0.000000   0.000000  
FAS17            2174.300000 10.970000  0.000000   0.000000   0.000000  
FAS9             2162.280000 12.720000  0.000000   0.000000   0.000000  
FL2-NEW          1680.950000 12.400000  0.000000   0.000000   0.000000  
FOM1             2171.720000 9.780000   0.000000   0.000000   0.000000  
FOM10            2201.630000 12.770000  0.000000   0.000000   0.000000  
FOM11            2202.740000 11.360000  0.000000   0.000000   0.000000  
FOM12            2203.110000 9.790000   0.000000   0.000000   0.000000  
FOM13            2203.760000 13.740000  0.000000   0.000000   0.000000  
FOM14            2204.750000 14.950000  0.000000   0.000000   0.000000  
FOM15            2205.740000 9.860000   0.000000   0.000000   0.000000  
FOM16            2206.650000 8.950000   0.000000   0.000000   0.000000  
FOM1A            2173.210000 8.580000   0.000000   0.000000   0.000000  
FOM2             2178.340000 8.460000   0.000000   0.000000   0.000000  
FOM3             2181.080000 9.820000   0.000000   0.000000   0.000000  
FOM4             2181.700000 9.800000   0.000000   0.000000   0.000000  
FOM5             2188.300000 8.400000   0.000000   0.000000   0.000000  
FOM6             2190.350000 10.150000  0.000000   0.000000   0.000000  
FOM7             2196.290000 7.710000   0.000000   0.000000   0.000000  
FOM7A            2197.000000 8.400000   0.000000   0.000000   0.000000  
FOM8             2198.130000 11.670000  0.000000   0.000000   0.000000  
FOM9             2199.960000 18.440000  0.000000   0.000000   0.000000  
FRE10            2047.390000 12.010000  0.000000   0.000000   0.000000  
FRE12            2048.290000 10.910000  0.000000   0.000000   0.000000  
FRE14            2048.740000 10.660000  0.000000   0.000000   0.000000  
FRE15            2049.840000 9.860000   0.000000   0.000000   0.000000  
FRE17            2050.400000 9.900000   0.000000   0.000000   0.000000  
FRE18            2048.710000 10.690000  0.000000   0.000000   0.000000  
FRE2             2031.400000 7.300000   0.000000   0.000000   0.000000  
FRE20            2049.810000 11.390000  0.000000   0.000000   0.000000  
FRE22            2050.710000 10.490000  0.000000   0.000000   0.000000  
FRE24            2051.600000 10.100000  0.000000   0.000000   0.000000  
FRE26            2052.500000 8.500000   0.000000   0.000000   0.000000  
FRE28            2053.420000 5.880000   0.000000   0.000000   0.000000  
FRE2A            2032.880000 13.120000  0.000000   0.000000   0.000000  
FRE3             2033.800000 16.200000  0.000000   0.000000   0.000000  
FRE30            2054.320000 6.480000   0.000000   0.000000   0.000000  
FRE32            2055.210000 4.390000   0.000000   0.000000   0.000000  
FRE35            2050.750000 10.550000  0.000000   0.000000   0.000000  