[TITLE]
Two Streets with HEC-22 Inlets - Full Flow vs. Distributed Flow
Street 1: 2.4 cfs at top (J1)
Street 2: 0.6 cfs at each node (J6-J9)

[OPTIONS]
FLOW_UNITS           CFS
INFILTRATION         HORTON
FLOW_ROUTING         DYNWAVE
LINK_OFFSETS         DEPTH
MIN_SLOPE            0
ALLOW_PONDING        NO
SKIP_STEADY_STATE    NO
START_DATE           05/01/2025
START_TIME           00:00:00
REPORT_START_DATE    05/01/2025
REPORT_START_TIME    00:00:00
END_DATE             05/01/2025
END_TIME             03:00:00
SWEEP_START          01/01
SWEEP_END            12/31
DRY_DAYS             0
REPORT_STEP          00:01:00
WET_STEP             00:05:00
DRY_STEP             01:00:00
ROUTING_STEP         0:00:30
RULE_STEP            00:00:00
INERTIAL_DAMPING     PARTIAL
NORMAL_FLOW_LIMITED  BOTH
FORCE_MAIN_EQUATION  H-W
VARIABLE_STEP        0.75
MIN_SURFAREA         12.566
MAX_TRIALS           8
HEAD_TOLERANCE       0.005
SYS_FLOW_TOL         5
LAT_FLOW_TOL         5
MINIMUM_STEP         0.5
THREADS              1

[EVAPORATION]
CONSTANT         0.0
DRY_ONLY         NO

[JUNCTIONS]
;;Name  Elevation  MaxDepth  InitDepth  SurDepth  Apond
J1      100.0      10.0      0.0        0.0       0.0
J2      99.0       10.0      0.0        0.0       0.0
J3      98.0       10.0      0.0        0.0       0.0
J4      97.0       10.0      0.0        0.0       0.0
J5      96.0       10.0      0.0        0.0       0.0
J6      100.0      10.0      0.0        0.0       0.0
J7      99.0       10.0      0.0        0.0       0.0
J8      98.0       10.0      0.0        0.0       0.0
J9      97.0       10.0      0.0        0.0       0.0
J10     96.0       10.0      0.0        0.0       0.0

[OUTFALLS]
;;Name  Elevation  Type  StageData  Gated  Route To
O1      95.0       FIXED 0.0        NO

[CONDUITS]
;;Name  FromNode  ToNode  Length  Roughness  InOffset  OutOffset  InitFlow  MaxFlow
C1      J1        J2      100.0   0.016      0.0       0.0        0.0       0.0
C2      J2        J3      100.0   0.016      0.0       0.0        0.0       0.0
C3      J3        J4      100.0   0.016      0.0       0.0        0.0       0.0
C4      J4        J5      100.0   0.016      0.0       0.0        0.0       0.0
C5      J6        J7      100.0   0.016      0.0       0.0        0.0       0.0
C6      J7        J8      100.0   0.016      0.0       0.0        0.0       0.0
C7      J8        J9      100.0   0.016      0.0       0.0        0.0       0.0
C8      J9        J10     100.0   0.016      0.0       0.0        0.0       0.0

[XSECTIONS]
;;Link  Shape  Geom1  Geom2  Geom3  Geom4  Barrels  Culvert
C1     STREET Street1 0.0    0.0    0.0    1
C2     STREET Street1 0.0    0.0    0.0    1
C3     STREET Street1 0.0    0.0    0.0    1
C4     STREET Street1 0.0    0.0    0.0    1
C5     STREET Street1 0.0    0.0    0.0    1
C6     STREET Street1 0.0    0.0    0.0    1
C7     STREET Street1 0.0    0.0    0.0    1
C8     STREET Street1 0.0    0.0    0.0    1

[STREETS]
;;Name  Tcrown  Hcurb  Sroad  nRoad  Hdep  Wdep  Sides  Wback  Sback  nBack
Street1 20.0    0.5    0.02   0.016  0.0   0.0   1      0.0    0.0    0.0

[INLETS]
;;Name           Type        GrateType  Length  Width  CurbLength  LocalDepress  Clogging  Location
CombInlet1        Curb         P-50       2.0     2.0    4.0         0.1           0.0       ON_GRADE

[INLET_USAGE]
;;Conduit  Inlet_Type  Inlet_Node  #Inlets  %Clogged  MaxFlow  Local_Depression  a  b
C1       CombInlet1   J2          1        0.0       0.0      0.0              0.0 0.0
C2       CombInlet1   J3          1        0.0       0.0      0.0              0.0 0.0
C3       CombInlet1   J4          1        0.0       0.0      0.0              0.0 0.0
C4       CombInlet1   J5          1        0.0       0.0      0.0              0.0 0.0
C5       CombInlet1   J7          1        0.0       0.0      0.0              0.0 0.0
C6       CombInlet1   J8          1        0.0       0.0      0.0              0.0 0.0
C7       CombInlet1   J9          1        0.0       0.0      0.0              0.0 0.0
C8       CombInlet 1  J10         1        0.0       0.0      0.0              0.0 0.0

[INFLOWS]
;;Node  Constituent  Time Series  Type  Mfactor  Sfactor  Baseline  Pattern
J1     FLOW         Inflow1      FLOW  1.0      1.0      0.0       NONE
J6     FLOW         Inflow2      FLOW  1.0      1.0      0.0       NONE
J7     FLOW         Inflow2      FLOW  1.0      1.0      0.0       NONE
J8     FLOW         Inflow2      FLOW  1.0      1.0      0.0       NONE
J9     FLOW         Inflow2      FLOW  1.0      1.0      0.0       NONE

[TIMESERIES]
;;Name    Date       Time  Value
Inflow1            00:00 0.0
Inflow1            01:00 2.4
Inflow1            03:00 2.4
Inflow2            00:00 0.0
Inflow2            01:00 0.6
Inflow2            03:00 0.6

[REPORT]
INPUT      YES
SUBCATCHMENTS NONE
NODES      ALL
LINKS      ALL
INLETS     ALL

[TAGS]

[MAP]
DIMENSIONS 0.0 0.0 10000.0 10000.0
Units      None

[COORDINATES]
;;Node  X-Coord  Y-Coord
J1      1000.0   4000.0
J2      1000.0   3000.0
J3      1000.0   2000.0
J4      1000.0   1000.0
J5      1000.0   0.0
J6      2000.0   4000.0
J7      2000.0   3000.0
J8      2000.0   2000.0
J9      2000.0   1000.0
J10     2000.0   0.0
O1      1500.0   -1000.0

[VERTICES]
;;Link  X-Coord  Y-Coord

[LABELS]
;;X-Coord  Y-Coord  Label
1200.0   4100.0   "Street 1: 2.4 cfs at J1" "" "Arial" 10 0 0
2200.0   4100.0   "Street 2: 0.6 cfs at J6-J9" "" "Arial" 10 0 0

[POLYGONS]
;;Node  X-Coord  Y-Coord

[SYMBOLS]
;;Gage  X-Coord  Y-Coord