[OPTIONS]
;Option and Files Scenario Set: BASE
FLOW_UNITS	CFS
INFILTRATION	HORTON
FLOW_ROUTING	DYNWAVE
ALLOW_PONDING	NO
DRY_DAYS	5.000000
SKIP_STEADY_STATE 	NO
IGNORE_RAINFALL	NO
IGNORE_SNOWMELT	NO
IGNORE_GROUNDWATER	NO
IGNORE_QUALITY	NO
FORCE_MAIN_EQUATION	H-W
LINK_OFFSETS	DEPTH
MIN_SLOPE	0.000000
START_DATE	01/01/2002
START_TIME	00:00:00
END_DATE	01/01/2002
END_TIME	96:00:00
REPORT_START_DATE	01/01/2002
REPORT_START_TIME	00:00
SWEEP_START	01/01
SWEEP_END	12/31
WET_STEP	01:00:00
DRY_STEP	23:00:00
ROUTING_STEP	300
REPORT_STEP	00:05:00
INERTIAL_DAMPING	NONE
VARIABLE_STEP	0.750000
MINIMUM_STEP	0.5
LENGTHENING_STEP	0
MIN_SURFAREA	0.000000
NORMAL_FLOW_LIMITED	BOTH

[FILES]

[RAINGAGES]

[HYDROGRAPHS]

[TEMPERATURE]

[ADJUSTMENTS]

[SUBCATCHMENTS]

[SUBAREAS]

[INFILTRATION]

[AQUIFERS]

[GROUNDWATER]

[GWF]

[SNOWPACKS]

[JUNCTIONS]
; New Manhole
10	1.300000	3.700000	0.000000	0.000000	0.000000
; New Manhole
12	1.100000	10.900000	0.000000	0.000000	0.000000
; New Manhole
16	1.500000	3.500000	0.000000	0.000000	0.000000
; New Manhole
18	1.400000	2.600000	0.000000	0.000000	0.000000
; New Manhole
20	1.200000	3.800000	0.000000	0.000000	0.000000
; New Manhole
22	1.000000	10.000000	0.000000	0.000000	0.000000
; New Manhole
24	1.600000	3.400000	0.000000	0.000000	0.000000
; New Manhole
36	1.800000	3.200000	0.000000	0.000000	0.000000

[OUTFALLS]
; New Manhole
14	0.000000	FIXED	3.000000	NO

[DIVIDERS]

[STORAGE]

[CONDUITS]
; New Pipe
11	10	20	208.512695	0.013000	0.000000	0.000000	0.000000	0.000000
; New Pipe
13	12	22	204.171865	0.013000	0.000000	0.000000	0.000000	0.000000
; New Pipe
17	16	18	154.855154	0.013000	0.000000	0.000000	0.000000	0.000000
; New Pipe
19	18	10	117.432257	0.013000	0.000000	0.000000	0.000000	0.000000
; New Pipe
21	20	12	188.849008	0.013000	0.000000	0.000000	0.000000	0.000000
; New Pipe
23	22	14	209.633016	0.013000	0.000000	0.000000	0.000000	0.000000
; New Pipe
25	24	16	439.546824	0.013000	0.000000	0.000000	0.000000	0.000000
; New Pipe
43	36	24	513.015000	0.013000	0.000000	0.000000	0.000000	0.000000

[PUMPS]

[ORIFICES]

[WEIRS]

[XSECTIONS]
11	CIRCULAR	1.000000	0.000000	0.000000	0.000000	1	0
13	CIRCULAR	1.000000	0.000000	0.000000	0.000000	1	0
17	CIRCULAR	1.000000	0.000000	0.000000	0.000000	1	0
19	CIRCULAR	1.000000	0.000000	0.000000	0.000000	1	0
21	CIRCULAR	1.000000	0.000000	0.000000	0.000000	1	0
23	CIRCULAR	1.000000	0.000000	0.000000	0.000000	1	0
25	CIRCULAR	1.000000	0.000000	0.000000	0.000000	1	0
43	CIRCULAR	1.000000	0.000000	0.000000	0.000000	1	0

[TRANSECTS]

[LOSSES]
11	0.000000	0.000000	0.000000	NO	0.000000
13	0.000000	0.000000	0.000000	NO	0.000000
17	0.000000	0.000000	0.000000	NO	0.000000
19	0.000000	0.000000	0.000000	NO	0.000000
21	0.000000	0.000000	0.000000	NO	0.000000
23	0.000000	0.000000	0.000000	NO	0.000000
25	0.000000	0.000000	0.000000	NO	0.000000
43	0.000000	0.000000	0.000000	NO	0.000000

[CONTROLS]

[POLLUTANTS]

[LANDUSES]

[COVERAGES]

[BUILDUP]

[WASHOFF]

[TREATMENT]

[INFLOWS]

[DWF]
36	FLOW	0.500000	""	""	""	""

[RDII]

[LOADINGS]

[CURVES]

[TIMESERIES]

[PATTERNS]
; 
PATN1_LOAD	HOURLY	1.000000	2.000000	3.000000	2.000000	1.000000
PATN1_LOAD	0.000000	1.000000	2.000000	3.000000	2.000000
PATN1_LOAD	1.000000	0.000000	1.000000	2.000000	3.000000
PATN1_LOAD	2.000000	1.000000	0.000000	1.000000	2.000000
PATN1_LOAD	3.000000	2.000000	1.000000	0.000000

[REPORT]
;Report Option Set: BASE, Base Simulation Report
INPUT NO
CONTINUITY YES
FLOWSTATS YES
CONTROLS NO
SUBCATCHMENTS  ALL
NODES  ALL
LINKS  ALL

[COORDINATES]
10	-114.026718	397.900763
12	72.041985	328.244275
14	272.423664	276.717557
16	-247.578943	424.229606
18	-171.393591	410.415779
20	-16.511282	361.020880
22	171.021892	303.253965
24	-412.507673	569.484096
36	-661.245779	632.137310


[POLYGONS]

[VERTICES]


[SYMBOLS]

[MAP]
DIMENSIONS	-707.929251	258.946569	319.107136	649.908298

