[TITLE]
Scenario Run :  BASE

[OPTIONS]
;Option and Files Scenario Set: BASE, Base Simulation Options
FLOW_UNITS	LPS
INFILTRATION	HORTON
FLOW_ROUTING	DYNWAVE
ALLOW_PONDING	NO
DRY_DAYS	0.000000
SKIP_STEADY_STATE 	NO
IGNORE_RAINFALL	NO
IGNORE_SNOWMELT	NO
IGNORE_GROUNDWATER	NO
IGNORE_QUALITY	NO
FORCE_MAIN_EQUATION	H-W
LINK_OFFSETS	DEPTH
MIN_SLOPE	0.000000
TEMPDIR	"C:\temp"
START_DATE	01/01/1988
START_TIME	00:00
END_DATE	01/01/1988
END_TIME	06:00
REPORT_START_DATE	01/01/1988
REPORT_START_TIME	00:00
SWEEP_START	01/01
SWEEP_END	12/31
WET_STEP	00:15:00
DRY_STEP	01:00:00
ROUTING_STEP	1
REPORT_STEP	00:00:10
INERTIAL_DAMPING	NONE
VARIABLE_STEP	0.750000
MINIMUM_STEP	0.5
LENGTHENING_STEP	1
MIN_SURFAREA	12.566000
NORMAL_FLOW_LIMITED	BOTH
MAX_TRIALS	8
HEAD_TOLERANCE	0.000010

[FILES]

[RAINGAGES]

[HYDROGRAPHS]

[EVAPORATION]
CONSTANT	0.600000
DRY_ONLY	NO

[TEMPERATURE]

[ADJUSTMENTS]

[SUBCATCHMENTS]

[SUBAREAS]

[INFILTRATION]

[AQUIFERS]

[GROUNDWATER]

[GWF]

[SNOWPACKS]

[JUNCTIONS]
10309	1.600000	19.400000	0.000000	0.000000	0.000000
10309A	1.600000	19.400000	0.000000	0.000000	0.000000
10309B	1.600000	19.400000	0.000000	0.000000	0.000000
10309C	1.600000	19.400000	0.000000	0.000000	0.000000
10309D	1.600000	19.400000	0.000000	0.000000	0.000000
10309E	1.600000	19.400000	0.000000	0.000000	0.000000
15009	11.500000	23.500000	0.000000	0.000000	0.000000
15009A	11.500000	23.500000	0.000000	0.000000	0.000000
15009B	11.500000	23.500000	0.000000	0.000000	0.000000
15009C	12.000000	25.000000	0.000000	0.000000	0.000000
15009D	11.500000	23.500000	0.000000	0.000000	0.000000
15009E	11.500000	23.500000	0.000000	0.000000	0.000000
16009	2.000000	28.000000	0.000000	0.000000	0.000000
16009A	2.000000	28.000000	0.000000	0.000000	0.000000
16009B	2.000000	28.000000	0.000000	0.000000	0.000000
16009C	2.000000	28.000000	0.000000	0.000000	0.000000
16009D	2.000000	28.000000	0.000000	0.000000	0.000000
16009E	2.000000	28.000000	0.000000	0.000000	0.000000
16109	2.800000	32.200000	0.000000	0.000000	0.000000
16109A	2.800000	32.200000	0.000000	0.000000	0.000000
16109B	2.800000	32.200000	0.000000	0.000000	0.000000
16109C	2.800000	32.200000	0.000000	0.000000	0.000000
16109D	2.800000	32.200000	0.000000	0.000000	0.000000
16109E	2.800000	32.200000	0.000000	0.000000	0.000000
; JUNCTION DATA
80408	24.600000	23.400000	0.000000	0.000000	0.000000
; 2nd network or extran example 2
80408A	24.600000	23.400000	0.000000	0.000000	0.000000
; 3rd network or extran example 3
80408B	24.600000	23.400000	0.000000	0.000000	0.000000
; 4th network or extran example 4
80408C	24.600000	23.400000	0.000000	0.000000	0.000000
; 5th network or extran example 5
80408D	24.600000	23.400000	0.000000	0.000000	0.000000
; 6th network or extran example 7
80408E	24.600000	23.400000	0.000000	0.000000	0.000000
80608	18.300000	26.700000	0.000000	0.000000	0.000000
80608A	18.300000	26.700000	0.000000	0.000000	0.000000
80608B	18.300000	26.700000	0.000000	0.000000	0.000000
80608C	18.300000	26.700000	0.000000	0.000000	0.000000
80608D	18.300000	26.700000	0.000000	0.000000	0.000000
80608E	18.300000	26.700000	0.000000	0.000000	0.000000
81009	28.200000	18.800000	0.000000	0.000000	0.000000
81009A	28.200000	18.800000	0.000000	0.000000	0.000000
81009B	28.200000	18.800000	0.000000	0.000000	0.000000
81009C	28.200000	18.800000	0.000000	0.000000	0.000000
81009D	28.200000	18.800000	0.000000	0.000000	0.000000
81009E	28.200000	18.800000	0.000000	0.000000	0.000000
81309	17.500000	22.500000	0.000000	0.000000	0.000000
81309A	17.500000	22.500000	0.000000	0.000000	0.000000
81309B	17.500000	22.500000	0.000000	0.000000	0.000000
81309C	17.500000	22.500000	0.000000	0.000000	0.000000
81309D	17.500000	22.500000	0.000000	0.000000	0.000000
81309E	17.500000	22.500000	0.000000	0.000000	0.000000
82308D	12.300000	52.700000	0.000000	0.000000	0.000000
82309	12.300000	52.700000	0.000000	0.000000	0.000000
82309A	12.300000	52.700000	0.000000	0.000000	0.000000
82309B	12.300000	22.000000	0.000000	0.000000	0.000000
82309C	12.300000	25.000000	0.000000	0.000000	0.000000

[OUTFALLS]
10208	-0.100000	FREE	NO
10208A	-0.100000	FIXED	2.000000	YES
10208B	-0.100000	FREE	NO
10208C	-0.100000	FREE	NO
10208D	-0.100000	FREE	NO
10208E	-0.100000	FREE	NO

[DIVIDERS]

[STORAGE]
82309D	12.300000	42.700000	0.000000	FUNCTIONAL	100.000000	0.000000	0.000000	0.000000	0.000000
WETWELL	12.300000	65.000000	0.000000	FUNCTIONAL	1.000000	0.000000	0.000000	0.000000	0.000000

[CONDUITS]
1030	10309	10208	450.000000	0.016000	0.000000	0.000000	0.000000	0.000000
1030A	10309A	10208A	450.000000	0.016000	0.000000	0.000000	0.000000	0.000000
1030B	10309B	10208B	450.000000	0.016000	0.000000	0.000000	0.000000	0.000000
1030C	10309C	10208C	450.000000	0.016000	0.000000	0.000000	0.000000	0.000000
1030D	10309D	10208D	450.000000	0.016000	0.000000	0.000000	0.000000	0.000000
1030E	10309E	10208E	450.000000	0.016000	0.000000	0.000000	0.000000	0.000000
1570	15009	16009	500.000000	0.015400	0.000000	0.000000	0.000000	0.000000
1570A	15009A	16009A	500.000000	0.015400	0.000000	0.000000	0.000000	0.000000
1570B	15009B	16009B	500.000000	0.015400	0.000000	0.000000	0.000000	0.000000
1570C	15009C	16009C	3.300000	0.015400	0.000000	0.000000	0.000000	22.000000
1570D	15009D	16009D	500.000000	0.015400	0.000000	0.000000	0.000000	0.000000
1570E	15009E	16009E	500.000000	0.015400	0.000000	0.000000	0.000000	0.000000
1600	16009	16109	50.000000	0.015000	0.000000	0.000000	0.000000	0.000000
1600A	16009A	16109A	50.000000	0.015000	0.000000	0.000000	0.000000	0.000000
1600B	16009B	16109B	50.000000	0.015000	0.000000	0.000000	0.000000	0.000000
1600C	16009C	16109C	50.000000	0.015000	0.000000	0.000000	0.000000	0.000000
1600D	16009D	16109D	50.000000	0.015000	0.000000	0.000000	0.000000	0.000000
1600E	16009E	16109E	50.000000	0.015000	0.000000	0.000000	0.000000	0.000000
1602	82309	16109	500.000000	0.034000	0.000000	0.000000	0.000000	0.000000
1602A	82309A	16109A	500.000000	0.034000	0.000000	0.000000	0.000000	0.000000
1602B	82309B	16109B	500.000000	0.034000	0.000000	0.000000	0.000000	0.000000
1602C	82309C	16109C	500.000000	0.034000	0.000000	0.000000	0.000000	0.000000
1602D	82309D	16109D	500.000000	0.034000	0.000000	0.000000	0.000000	0.000000
1602E	WETWELL	16109E	500.000000	0.034000	0.000000	0.000000	0.000000	300.000000
1630	16009	10309	30.000000	0.015000	0.000000	0.000000	0.000000	0.000000
1630A	16009A	10309A	30.000000	0.015000	0.000000	0.000000	0.000000	0.000000
1630B	16009B	10309B	30.000000	0.015000	0.000000	0.000000	0.000000	0.000000
1630C	16009C	10309C	30.000000	0.015000	0.000000	0.000000	0.000000	0.000000
1630D	16009D	10309D	30.000000	0.015000	0.000000	0.000000	0.000000	0.000000
1630E	16009E	10309E	30.000000	0.015000	0.000000	0.000000	0.000000	0.000000
8040	80408	80608	180.000000	0.015000	0.000000	0.000000	0.000000	0.000000
; 2nd network or extran example 2
8040A	80408A	80608A	180.000000	0.015000	0.000000	0.000000	0.000000	0.000000
; 3rd network or extran example 3
8040B	80408B	80608B	180.000000	0.015000	0.000000	0.000000	0.000000	0.000000
; 4th network or extran example 4
8040C	80408C	80608C	180.000000	0.015000	0.000000	0.000000	0.000000	0.000000
; 5th network or extran example 5
8040D	80408D	80608D	180.000000	0.015000	0.000000	0.000000	0.000000	0.000000
; 6th network or extran example 7
8040E	80408E	80608E	180.000000	0.015000	0.000000	0.000000	0.000000	0.000000
8060	80608	82309	207.500000	0.015000	0.000000	2.000000	0.000000	0.000000
8060A	80608A	82309A	207.500000	0.015000	0.000000	2.000000	0.000000	0.000000
8060B	80608B	82309B	207.500000	0.015000	0.000000	3.000000	0.000000	0.000000
8060C	80608C	82309C	207.500000	0.015000	0.000000	3.000000	0.000000	0.000000
8060D	80608D	82309D	207.500000	0.015000	0.000000	0.000000	0.000000	0.000000
8060E	80608E	WETWELL	207.500000	0.015000	0.000000	0.000000	0.000000	0.000000
8100	81009	81309	510.000000	0.015000	0.000000	0.000000	0.000000	0.000000
8100A	81009A	81309A	510.000000	0.015000	0.000000	0.000000	0.000000	0.000000
8100B	81009B	81309B	510.000000	0.015000	0.000000	0.000000	0.000000	0.000000
8100C	81009C	81309C	510.000000	0.015000	0.000000	0.000000	0.000000	0.000000
8100D	81009D	81309D	510.000000	0.015000	0.000000	0.000000	0.000000	0.000000
8100E	81009E	81309E	510.000000	0.015000	0.000000	0.000000	0.000000	0.000000
8130	81309	15009	350.000000	0.015000	0.000000	0.000000	0.000000	0.000000
8130A	81309A	15009A	350.000000	0.015000	0.000000	0.000000	0.000000	0.000000
8130B	81309B	15009B	350.000000	0.015000	0.000000	0.000000	0.000000	0.000000
8130C	81309C	15009C	350.000000	0.015000	0.000000	0.000000	0.000000	0.000000
8130D	81309D	15009D	350.000000	0.015000	0.000000	0.000000	0.000000	0.000000
8130E	81309E	15009E	350.000000	0.015000	0.000000	0.000000	0.000000	0.000000

[PUMPS]
PUMP1	WETWELL	15009E	PUMPCURVEFORPUMP1@82309E-15009E	OFF	6.000000	5.000000

[ORIFICES]
OR1@82309D-82308D	82309D	82308D	SIDE	0.000000	0.850000	NO

[WEIRS]
WEIR1@82309C-15009C	82309C	15009C	TRANSVERSE	3.000000	3.300000	NO	0	0.000000	YES

[OUTLETS]
; *   SUMP ORIFICE AT JUNCTION 82309b for the 3rd network
OR1@82309B-15009B	82309B	15009B	2.000000	FUNCTIONAL/DEPTH	2.000000	2.000000	NO

[XSECTIONS]
1030	TRIANGULAR	0.900000	5.400000	0.000000	0.000000	1	0
1030A	TRIANGULAR	0.900000	5.400000	0.000000	0.000000	1	0
1030B	TRIANGULAR	0.900000	5.400000	0.000000	0.000000	1	0
1030C	TRIANGULAR	0.900000	5.400000	0.000000	0.000000	1	0
1030D	TRIANGULAR	0.900000	5.400000	0.000000	0.000000	1	0
1030E	TRIANGULAR	0.900000	5.400000	0.000000	0.000000	1	0
1570	CIRCULAR	0.550000	0.000000	0.000000	0.000000	1	0
1570A	CIRCULAR	0.550000	0.000000	0.000000	0.000000	1	0
1570B	CIRCULAR	0.550000	0.000000	0.000000	0.000000	1	0
1570C	CIRCULAR	0.550000	0.000000	0.000000	0.000000	1	0
1570D	CIRCULAR	0.550000	0.000000	0.000000	0.000000	1	0
1570E	CIRCULAR	0.550000	0.000000	0.000000	0.000000	1	0
1600	CIRCULAR	0.600000	0.000000	0.000000	0.000000	1	0
1600A	CIRCULAR	0.600000	0.000000	0.000000	0.000000	1	0
1600B	CIRCULAR	0.600000	0.000000	0.000000	0.000000	1	0
1600C	CIRCULAR	0.600000	0.000000	0.000000	0.000000	1	0
1600D	CIRCULAR	0.600000	0.000000	0.000000	0.000000	1	0
1600E	CIRCULAR	0.600000	0.000000	0.000000	0.000000	1	0
1602	CIRCULAR	0.500000	0.000000	0.000000	0.000000	1	0
1602A	CIRCULAR	0.500000	0.000000	0.000000	0.000000	1	0
1602B	CIRCULAR	0.500000	0.000000	0.000000	0.000000	1	0
1602C	CIRCULAR	0.500000	0.000000	0.000000	0.000000	1	0
1602D	CIRCULAR	0.500000	0.000000	0.000000	0.000000	1	0
1602E	CIRCULAR	0.500000	0.000000	0.000000	0.000000	1	0
1630	TRIANGULAR	0.900000	5.400000	0.000000	0.000000	1	0
1630A	TRIANGULAR	0.900000	5.400000	0.000000	0.000000	1	0
1630B	TRIANGULAR	0.900000	5.400000	0.000000	0.000000	1	0
1630C	TRIANGULAR	0.900000	5.400000	0.000000	0.000000	1	0
1630D	TRIANGULAR	0.900000	5.400000	0.000000	0.000000	1	0
1630E	TRIANGULAR	0.900000	5.400000	0.000000	0.000000	1	0
8040	CIRCULAR	0.400000	0.000000	0.000000	0.000000	1	0
8040A	CIRCULAR	0.400000	0.000000	0.000000	0.000000	1	0
8040B	CIRCULAR	0.400000	0.000000	0.000000	0.000000	1	0
8040C	CIRCULAR	0.400000	0.000000	0.000000	0.000000	1	0
8040D	CIRCULAR	0.400000	0.000000	0.000000	0.000000	1	0
8040E	CIRCULAR	0.400000	0.000000	0.000000	0.000000	1	0
8060	CIRCULAR	0.400000	0.000000	0.000000	0.000000	1	0
8060A	CIRCULAR	0.400000	0.000000	0.000000	0.000000	1	0
8060B	CIRCULAR	0.400000	0.000000	0.000000	0.000000	1	0
8060C	CIRCULAR	0.400000	0.000000	0.000000	0.000000	1	0
8060D	CIRCULAR	0.400000	0.000000	0.000000	0.000000	1	0
8060E	CIRCULAR	0.400000	0.000000	0.000000	0.000000	1	0
8100	CIRCULAR	0.450000	0.000000	0.000000	0.000000	1	0
8100A	CIRCULAR	0.450000	0.000000	0.000000	0.000000	1	0
8100B	CIRCULAR	0.450000	0.000000	0.000000	0.000000	1	0
8100C	CIRCULAR	0.450000	0.000000	0.000000	0.000000	1	0
8100D	CIRCULAR	0.450000	0.000000	0.000000	0.000000	1	0
8100E	CIRCULAR	0.450000	0.000000	0.000000	0.000000	1	0
8130	CIRCULAR	0.450000	0.000000	0.000000	0.000000	1	0
8130A	CIRCULAR	0.450000	0.000000	0.000000	0.000000	1	0
8130B	CIRCULAR	0.450000	0.000000	0.000000	0.000000	1	0
8130C	CIRCULAR	0.450000	0.000000	0.000000	0.000000	1	0
8130D	CIRCULAR	0.450000	0.000000	0.000000	0.000000	1	0
8130E	CIRCULAR	0.450000	0.000000	0.000000	0.000000	1	0
WEIR1@82309C-15009C	RECT_OPEN	6.000000	3.000000	0.000000	0.000000
OR1@82309D-82308D	CIRCULAR	2.000000	0.000000	0.000000	0.000000

[TRANSECTS]

[LOSSES]
1030	0.000000	0.000000	0.000000	NO	0.000000
1030A	0.000000	0.000000	0.000000	YES	0.000000
1030B	0.000000	0.000000	0.000000	NO	0.000000
1030C	0.000000	0.000000	0.000000	NO	0.000000
1030D	0.000000	0.000000	0.000000	NO	0.000000
1030E	0.000000	0.000000	0.000000	NO	0.000000
1570	0.000000	0.000000	0.000000	NO	0.000000
1570A	0.000000	0.000000	0.000000	NO	0.000000
1570B	0.000000	0.000000	0.000000	NO	0.000000
1570C	0.000000	0.000000	0.000000	NO	0.000000
1570D	0.000000	0.000000	0.000000	NO	0.000000
1570E	0.000000	0.000000	0.000000	NO	0.000000
1600	0.000000	0.000000	0.000000	NO	0.000000
1600A	0.000000	0.000000	0.000000	NO	0.000000
1600B	0.000000	0.000000	0.000000	NO	0.000000
1600C	0.000000	0.000000	0.000000	NO	0.000000
1600D	0.000000	0.000000	0.000000	NO	0.000000
1600E	0.000000	0.000000	0.000000	NO	0.000000
1602	0.000000	0.000000	0.000000	NO	0.000000
1602A	0.000000	0.000000	0.000000	NO	0.000000
1602B	0.000000	0.000000	0.000000	NO	0.000000
1602C	0.000000	0.000000	0.000000	NO	0.000000
1602D	0.000000	0.000000	0.000000	NO	0.000000
1602E	0.000000	0.000000	0.000000	NO	0.000000
1630	0.000000	0.000000	0.000000	NO	0.000000
1630A	0.000000	0.000000	0.000000	NO	0.000000
1630B	0.000000	0.000000	0.000000	NO	0.000000
1630C	0.000000	0.000000	0.000000	NO	0.000000
1630D	0.000000	0.000000	0.000000	NO	0.000000
1630E	0.000000	0.000000	0.000000	NO	0.000000
8040	0.000000	0.000000	0.000000	NO	0.000000
8040A	0.000000	0.000000	0.000000	NO	0.000000
8040B	0.000000	0.000000	0.000000	NO	0.000000
8040C	0.000000	0.000000	0.000000	NO	0.000000
8040D	0.000000	0.000000	0.000000	NO	0.000000
8040E	0.000000	0.000000	0.000000	NO	0.000000
8060	0.000000	0.000000	0.000000	NO	0.000000
8060A	0.000000	0.000000	0.000000	NO	0.000000
8060B	0.000000	0.000000	0.000000	NO	0.000000
8060C	0.000000	0.000000	0.000000	NO	0.000000
8060D	0.000000	0.000000	0.000000	NO	0.000000
8060E	0.000000	0.000000	0.000000	NO	0.000000
8100	0.000000	0.000000	0.000000	NO	0.000000
8100A	0.000000	0.000000	0.000000	NO	0.000000
8100B	0.000000	0.000000	0.000000	NO	0.000000
8100C	0.000000	0.000000	0.000000	NO	0.000000
8100D	0.000000	0.000000	0.000000	NO	0.000000
8100E	0.000000	0.000000	0.000000	NO	0.000000
8130	0.000000	0.000000	0.000000	NO	0.000000
8130A	0.000000	0.000000	0.000000	NO	0.000000
8130B	0.000000	0.000000	0.000000	NO	0.000000
8130C	0.000000	0.000000	0.000000	NO	0.000000
8130D	0.000000	0.000000	0.000000	NO	0.000000
8130E	0.000000	0.000000	0.000000	NO	0.000000

[CONTROLS]
RULE IAN_RULE
IF NODE WETWELL DEPTH > 7.000000
AND PUMP PUMP1 STATUS = OFF
THEN PUMP PUMP1 SETTING = CURVE IANCURVE
AND PUMP PUMP1 STATUS = ON
PRIORITY 0.000000


[POLLUTANTS]

[LANDUSES]

[COVERAGES]

[BUILDUP]

[WASHOFF]

[TREATMENT]

[INFLOWS]
80408	FLOW	INFLOW@80408	FLOW  1.0	1.000000
80408A	FLOW	INFLOW@80408A	FLOW  1.0	1.000000
80408B	FLOW	INFLOW@80408B	FLOW  1.0	1.000000
80408C	FLOW	INFLOW@80408C	FLOW  1.0	1.000000
80408D	FLOW	INFLOW@80408D	FLOW  1.0	1.000000
80408E	FLOW	INFLOW@80408E	FLOW  1.0	10.000000
81009	FLOW	INFLOW@81009	FLOW  1.0	1.000000
81009A	FLOW	INFLOW@81009A	FLOW  1.0	1.000000
81009B	FLOW	INFLOW@81009B	FLOW  1.0	1.000000
81009C	FLOW	INFLOW@81009C	FLOW  1.0	1.000000
81009D	FLOW	INFLOW@81009D	FLOW  1.0	1.000000
81009E	FLOW	INFLOW@81009E	FLOW  1.0	1.000000
82309	FLOW	INFLOW@82309	FLOW  1.0	1.000000
82309A	FLOW	INFLOW@82309A	FLOW  1.0	1.000000
82309B	FLOW	INFLOW@82309B	FLOW  1.0	1.000000
82309C	FLOW	INFLOW@82309C	FLOW  1.0	1.000000
82309D	FLOW	INFLOW@82309D	FLOW  1.0	1.000000
WETWELL	FLOW	INFLOW@82309E	FLOW  1.0	1.000000

[DWF]
80408	FLOW	10.000000	"WEEK"	""	""	""
80408A	FLOW	11.000000	"WEEK"	""	""	""

[RDII]

[LOADINGS]

[CURVES]
; 
HIGHCURVE	CONTROL	0.000000	0.900000
HIGHCURVE	10.000000	0.900000
; 
IANCURVE	CONTROL	0.000000	0.000000
IANCURVE	16.299000	0.000000
IANCURVE	16.300000	0.600000
IANCURVE	20.000000	0.700000
IANCURVE	24.000000	0.900000
IANCURVE	28.000000	1.000000
IANCURVE	55.000000	1.000000
; 
LOWCURVE	CONTROL	0.000000	0.400000
LOWCURVE	10.000000	0.400000
; 
PUMPCURVEFORPUMP1@82309E-15009E	PUMP3	8.000000	50.000000
PUMPCURVEFORPUMP1@82309E-15009E	25.000000	100.000000
PUMPCURVEFORPUMP1@82309E-15009E	42.700000	200.000000
; 
SB1	STORAGE	0.000000	0.000000
SB1	1.000000	0.000000
SB1	1.500000	0.000000
SB1	2.000000	0.000000
SB1	2.500000	340.000000
SB1	3.000000	2483.000000
SB1	3.500000	5686.000000
SB1	4.000000	11585.000000
SB1	4.500000	51299.000000
SB1	5.000000	278327.000000
SB1	5.500000	526214.000000
SB1	6.000000	740422.000000
SB1	6.500000	839055.000000
SB1	7.000000	864692.000000
SB1	8.000000	866863.000000
SB1	9.000000	868103.000000
SB1	10.000000	868394.000000
; 
SB2	STORAGE	0.000000	0.000000
SB2	1.000000	0.000000
SB2	1.500000	7103.000000
SB2	2.000000	31791.000000
SB2	2.500000	71923.000000
SB2	3.000000	122585.000000
SB2	3.500000	183836.000000
SB2	4.000000	272757.000000
SB2	4.500000	460705.000000
SB2	5.000000	751151.000000
SB2	5.500000	967995.000000
SB2	6.000000	1095621.000000
SB2	6.500000	1101547.000000
SB2	7.000000	1101970.000000
SB2	8.000000	1102600.000000
SB2	9.000000	1103111.000000
SB2	10.000000	1103519.000000
; 
SB3	STORAGE	0.000000	0.000000
SB3	1.000000	0.000000
SB3	1.500000	0.000000
SB3	2.000000	0.000000
SB3	2.500000	0.000000
SB3	3.000000	332.000000
SB3	3.500000	23187.000000
SB3	4.000000	127395.000000
SB3	4.500000	316178.000000
SB3	5.000000	471158.000000
SB3	5.500000	554586.000000
SB3	6.000000	598930.000000
SB3	6.500000	615368.000000
SB3	7.000000	619054.000000
SB3	8.000000	623164.000000
SB3	9.000000	626320.000000
SB3	10.000000	628073.000000
; 
SB4	STORAGE	0.000000	1565.000000
SB4	1.000000	2261.000000
SB4	1.500000	2607.000000
SB4	2.000000	3010.000000
SB4	2.500000	3441.000000
SB4	3.000000	3901.000000
SB4	3.500000	4388.000000
SB4	4.000000	6141.000000
SB4	4.500000	73936.000000
SB4	5.000000	305776.000000
SB4	5.500000	477898.000000
SB4	6.000000	581768.000000
SB4	6.500000	602558.000000
SB4	7.000000	605744.000000
SB4	8.000000	606120.000000
SB4	9.000000	606441.000000
SB4	10.000000	606768.000000
; 
SB5	STORAGE	0.000000	0.000000
SB5	1.000000	0.000000
SB5	1.500000	0.000000
SB5	2.000000	0.000000
SB5	2.500000	39.000000
SB5	3.000000	7520.000000
SB5	3.500000	45065.000000
SB5	4.000000	83112.000000
SB5	4.500000	161541.000000
SB5	5.000000	235404.000000
SB5	5.500000	295242.000000
SB5	6.000000	322603.000000
SB5	6.500000	341396.000000
SB5	7.000000	347583.000000
SB5	8.000000	355460.000000
SB5	9.000000	358876.000000
SB5	10.000000	359746.000000
; 
SB6	STORAGE	0.000000	0.000000
SB6	1.000000	28.000000
SB6	1.500000	62.000000
SB6	2.000000	111.000000
SB6	2.500000	174.000000
SB6	3.000000	671.000000
SB6	3.500000	20637.000000
SB6	4.000000	115442.000000
SB6	4.500000	280562.000000
SB6	5.000000	438832.000000
SB6	5.500000	604771.000000
SB6	6.000000	711883.000000
SB6	6.500000	754132.000000
SB6	7.000000	772875.000000
SB6	8.000000	777041.000000
SB6	9.000000	777041.000000
SB6	10.000000	777041.000000
; 
SB7	STORAGE	0.000000	0.000000
SB7	1.000000	76.000000
SB7	1.500000	161.000000
SB7	2.000000	277.000000
SB7	2.500000	425.000000
SB7	3.000000	604.000000
SB7	3.500000	814.000000
SB7	4.000000	1094.000000
SB7	4.500000	13105.000000
SB7	5.000000	92154.000000
SB7	5.500000	244856.000000
SB7	6.000000	425764.000000
SB7	6.500000	534327.000000
SB7	7.000000	603342.000000
SB7	8.000000	629626.000000
SB7	9.000000	635380.000000
SB7	10.000000	639804.000000
; 
SB8	STORAGE	0.000000	0.000000
SB8	1.000000	0.000000
SB8	1.500000	0.000000
SB8	2.000000	0.000000
SB8	2.500000	3210.000000
SB8	3.000000	18142.000000
SB8	3.500000	39310.000000
SB8	4.000000	66507.000000
SB8	4.500000	121586.000000
SB8	5.000000	199685.000000
SB8	5.500000	318789.000000
SB8	6.000000	434905.000000
SB8	6.500000	529773.000000
SB8	7.000000	610618.000000
SB8	8.000000	692084.000000
SB8	9.000000	742023.000000
SB8	10.000000	766289.000000
; 
SB9	STORAGE	0.000000	0.000000
SB9	1.000000	0.000000
SB9	1.500000	0.000000
SB9	2.000000	0.000000
SB9	2.500000	0.000000
SB9	3.000000	0.000000
SB9	3.500000	0.000000
SB9	4.000000	0.000000
SB9	4.500000	2.000000
SB9	5.000000	2361.000000
SB9	5.500000	49440.000000
SB9	6.000000	264589.000000
SB9	6.500000	600759.000000
SB9	7.000000	986301.000000
SB9	8.000000	1176915.000000
SB9	9.000000	1187853.000000
SB9	10.000000	1189988.000000

[TIMESERIES]
INFLOW@82309	01/01/1988	00:00	0.000000
INFLOW@82309	00:15	40.000000
INFLOW@82309	03:00	40.000000
INFLOW@82309	03:15	0.000000

INFLOW@80408	01/01/1988	00:00	0.000000
INFLOW@80408	00:15	45.000000
INFLOW@80408	03:00	45.000000
INFLOW@80408	03:15	10.000000
INFLOW@80408	12:00	10.000000
INFLOW@80408	01/11/1988	0:00	10.000000

INFLOW@81009	01/01/1988	00:00	0.000000
INFLOW@81009	00:15	50.000000
INFLOW@81009	03:00	50.000000
INFLOW@81009	03:15	0.000000

INFLOW@82309A	01/01/1988	00:00	0.000000
INFLOW@82309A	00:15	40.000000
INFLOW@82309A	03:00	40.000000
INFLOW@82309A	03:15	0.000000

INFLOW@80408A	01/01/1988	00:00	0.000000
INFLOW@80408A	00:15	45.000000
INFLOW@80408A	03:00	45.000000
INFLOW@80408A	03:15	0.000000

INFLOW@81009A	01/01/1988	00:00	0.000000
INFLOW@81009A	00:15	50.000000
INFLOW@81009A	03:00	50.000000
INFLOW@81009A	03:15	0.000000

INFLOW@82309B	01/01/1988	00:00	0.000000
INFLOW@82309B	00:15	40.000000
INFLOW@82309B	03:00	40.000000
INFLOW@82309B	03:15	0.000000

INFLOW@80408B	01/01/1988	00:00	0.000000
INFLOW@80408B	00:15	45.000000
INFLOW@80408B	03:00	45.000000
INFLOW@80408B	03:15	0.000000

INFLOW@81009B	01/01/1988	00:00	0.000000
INFLOW@81009B	00:15	50.000000
INFLOW@81009B	03:00	50.000000
INFLOW@81009B	03:15	0.000000

INFLOW@82309C	01/01/1988	00:00	0.000000
INFLOW@82309C	00:15	40.000000
INFLOW@82309C	03:00	40.000000
INFLOW@82309C	03:15	0.000000

INFLOW@80408C	01/01/1988	00:00	0.000000
INFLOW@80408C	00:15	45.000000
INFLOW@80408C	03:00	45.000000
INFLOW@80408C	03:15	0.000000

INFLOW@81009C	01/01/1988	00:00	0.000000
INFLOW@81009C	00:15	50.000000
INFLOW@81009C	03:00	50.000000
INFLOW@81009C	03:15	0.000000

INFLOW@82309D	01/01/1988	00:00	0.000000
INFLOW@82309D	00:15	40.000000
INFLOW@82309D	03:00	40.000000
INFLOW@82309D	03:15	0.000000

INFLOW@80408D	01/01/1988	00:00	0.000000
INFLOW@80408D	00:15	45.000000
INFLOW@80408D	03:00	45.000000
INFLOW@80408D	03:15	0.000000

INFLOW@81009D	01/01/1988	00:00	0.000000
INFLOW@81009D	00:15	50.000000
INFLOW@81009D	03:00	50.000000
INFLOW@81009D	03:15	0.000000

INFLOW@82309E	01/01/1988	00:00	0.000000
INFLOW@82309E	00:15	40.000000
INFLOW@82309E	03:00	40.000000
INFLOW@82309E	03:15	0.000000

INFLOW@80408E	01/01/1988	00:00	0.000000
INFLOW@80408E	0:30	50.000000
INFLOW@80408E	1:00	0.000000
INFLOW@80408E	1:30	50.000000
INFLOW@80408E	2:00	0.000000
INFLOW@80408E	3:00	50.000000
INFLOW@80408E	3:30	0.000000
INFLOW@80408E	4:00	50.000000
INFLOW@80408E	4:30	0.000000
INFLOW@80408E	5:00	50.000000
INFLOW@80408E	5:30	0.000000
INFLOW@80408E	6:00	50.000000

INFLOW@81009E	01/01/1988	00:00	0.000000
INFLOW@81009E	00:15	50.000000
INFLOW@81009E	03:00	50.000000
INFLOW@81009E	03:15	0.000000


[PATTERNS]
; 
WEEK	WEEKEND	2.000000	2.000000	2.000000	2.000000	2.000000
WEEK	2.000000	2.000000	2.000000	2.000000	2.000000
WEEK	2.000000	2.000000	2.000000	2.000000	2.000000
WEEK	2.000000	2.000000	2.000000	2.000000	2.000000
WEEK	2.000000	2.000000	2.000000	2.000000

[REPORT]
;Report Option Set: BASE, Base Simulation Report
INPUT NO
CONTINUITY YES
FLOWSTATS YES
CONTROLS YES
SUBCATCHMENTS  ALL
NODES  ALL
LINKS  ALL

[COORDINATES]
10208	-578.950000	4947.370000
10208A	-578.950000	10947.370000
10208B	-578.950000	16947.370000
10208C	10420.950000	16947.370000
10208D	10420.950000	10947.370000
10208E	10420.950000	4947.370000
10309	389.470000	2421.050000
10309A	389.470000	8421.050000
10309B	389.470000	14421.050000
10309C	11389.470000	14421.050000
10309D	11389.470000	8421.050000
10309E	11389.470000	2421.050000
15009	4978.950000	2421.050000
15009A	4978.950000	8421.050000
15009B	4978.950000	14421.050000
15009C	15978.950000	14421.050000
15009D	15978.950000	8421.050000
15009E	15978.950000	2421.050000
16009	2494.740000	2421.050000
16009A	2494.740000	8421.050000
16009B	2494.740000	14421.050000
16009C	13494.740000	14421.050000
16009D	13494.740000	8421.050000
16009E	13494.740000	2421.050000
16109	2494.740000	7536.840000
16109A	2494.740000	13536.840000
16109B	2494.740000	19536.840000
16109C	13494.740000	19536.840000
16109D	13494.740000	13536.840000
16109E	13494.740000	7536.840000
80408	10115.790000	7536.840000
80408A	10115.790000	13536.840000
80408B	10115.790000	19536.840000
80408C	21115.790000	19536.840000
80408D	21115.790000	13536.840000
80408E	21115.790000	7536.840000
80608	7463.160000	7536.840000
80608A	7463.160000	13536.840000
80608B	7463.160000	19536.840000
80608C	18463.160000	19536.840000
80608D	18463.160000	13536.840000
80608E	18463.160000	7536.840000
81009	9989.470000	2421.050000
81009A	9989.470000	8421.050000
81009B	9989.470000	14421.050000
81009C	20989.470000	14421.050000
81009D	20989.470000	8421.050000
81009E	20989.470000	2421.050000
81309	7568.420000	2421.050000
81309A	7568.420000	8421.050000
81309B	7568.420000	14421.050000
81309C	18568.420000	14421.050000
81309D	18568.420000	8421.050000
81309E	18568.420000	2421.050000
82308D	14957.890000	13536.840000
82309	4957.890000	7536.840000
82309A	4957.890000	13536.840000
82309B	4957.890000	19536.840000
82309C	15957.890000	19536.840000
82309D	15957.890000	13536.840000
WETWELL	15957.890000	7536.840000


[POLYGONS]

[VERTICES]


[SYMBOLS]

[MAP]
DIMENSIONS	-1663.687000	1565.260500	22200.527000	20392.629500

