[TITLE]
;;Project Title/Notes

[OPTIONS]
;;Option             Value
FLOW_UNITS           LPS
INFILTRATION         HORTON
FLOW_ROUTING         DYNWAVE
LINK_OFFSETS         DEPTH
MIN_SLOPE            0
ALLOW_PONDING        NO
SKIP_STEADY_STATE    NO

START_DATE           01/01/2002
START_TIME           00:00:00
REPORT_START_DATE    01/02/2002
REPORT_START_TIME    00:00:00
END_DATE             01/02/2002
END_TIME             01:00:00
SWEEP_START          01/01
SWEEP_END            12/31
DRY_DAYS             5.000000
REPORT_STEP          00:01:00
WET_STEP             01:00:00
DRY_STEP             23:00:00
ROUTING_STEP         .1

INERTIAL_DAMPING     NONE
NORMAL_FLOW_LIMITED  BOTH
FORCE_MAIN_EQUATION  H-W
VARIABLE_STEP        0.50
LENGTHENING_STEP     0
MIN_SURFAREA         0.001000
MAX_TRIALS           20
HEAD_TOLERANCE       0.00001
SYS_FLOW_TOL         5
LAT_FLOW_TOL         5
MINIMUM_STEP         0.5
THREADS              1

[FILES]
;;Interfacing Files
SAVE HOTSTART "D:\2016PC\Spring2014\PUMPVenant.HSF"

[EVAPORATION]
;;Data Source    Parameters
;;-------------- ----------------
CONSTANT         0.0
DRY_ONLY         NO

[JUNCTIONS]
;;Name           Elevation  MaxDepth   InitDepth  SurDepth   Aponded   
;;-------------- ---------- ---------- ---------- ---------- ----------
3                0.168000   1.000000   0.000000   0.000000   0.000000  
4                0.000000   1.000000   0.000000   0.000000   0.000000  
A3               0.168000   1.000000   0.000000   0.000000   0.000000  
A4               0.000000   1.000000   0.000000   0.000000   0.000000  
A5               -0.015000  1.000000   0.000000   0.000000   0.000000  
B10              -0.024000  1.000000   0.000000   0.000000   0.000000  
B11              -0.028000  1.000000   0.000000   0.000000   0.000000  
B3               0.168000   1.000000   0.000000   0.000000   0.000000  
B4               0.000000   1.000000   0.000000   0.000000   0.000000  
B5               -0.004000  1.000000   0.000000   0.000000   0.000000  
B6               -0.008000  1.000000   0.000000   0.000000   0.000000  
B7               -0.012000  1.000000   0.000000   0.000000   0.000000  
B8               -0.016000  1.000000   0.000000   0.000000   0.000000  
B9               -0.020000  1.000000   0.000000   0.000000   0.000000  
C10              -0.012000  1.000000   0.000000   0.000000   0.000000  
C11              -0.014000  1.000000   0.000000   0.000000   0.000000  
C12              -0.016000  1.000000   0.000000   0.000000   0.000000  
C13              -0.018000  1.000000   0.000000   0.000000   0.000000  
C14              -0.020000  1.000000   0.000000   0.000000   0.000000  
C15              -0.022000  1.000000   0.000000   0.000000   0.000000  
C16              -0.024000  1.000000   0.000000   0.000000   0.000000  
C17              -0.026000  1.000000   0.000000   0.000000   0.000000  
C18              -0.028000  1.000000   0.000000   0.000000   0.000000  
C3               0.168000   1.000000   0.000000   0.000000   0.000000  
C4               0.000000   1.000000   0.000000   0.000000   0.000000  
C5               -0.002000  1.000000   0.000000   0.000000   0.000000  
C6               -0.004000  1.000000   0.000000   0.000000   0.000000  
C7               -0.006000  1.000000   0.000000   0.000000   0.000000  
C8               -0.008000  1.000000   0.000000   0.000000   0.000000  
C9               -0.010000  1.000000   0.000000   0.000000   0.000000  

[OUTFALLS]
;;Name           Elevation  Type       Stage Data       Gated    Route To        
;;-------------- ---------- ---------- ---------------- -------- ----------------
A2               0.336000   FIXED      0.50             NO                       
B2               0.336000   FIXED      0.50             NO                       
C2               0.336000   FIXED      0.50             NO                       
OUTFALL1         -0.030000  FREE                        NO                       
OUTFALLA         -0.030000  FREE                        NO                       
OUTFALLB         -0.030000  FREE                        NO                       
OUTFALLC         -0.030000  FREE                        NO                       

[STORAGE]
;;Name           Elev.    MaxDepth   InitDepth  Shape      Curve Name/Params            N/A      Fevap    Psi      Ksat     IMD     
;;-------------- -------- ---------- ----------- ---------- ---------------------------- -------- --------          -------- --------
2                0.336000 1          0.16       FUNCTIONAL 10000000  0         0        0        0       

[CONDUITS]
;;Name           From Node        To Node          Length     Roughness  InOffset   OutOffset  InitFlow   MaxFlow   
;;-------------- ---------------- ---------------- ---------- ---------- ---------- ---------- ---------- ----------
2                2                3                1.000000   0.011000   0.000000   0.000000   0.000000   0.000000  
3                3                4                1.000000   0.011000   0.000000   0.000000   0.000000   0.000000  
5                4                OUTFALL1         15.000000  0.011000   0.000000   0.000000   0.000000   0.000000  
A2               A2               A3               1.000000   0.011000   0.000000   0.000000   0.000000   0.000000  
A3               A3               A4               1.000000   0.011000   0.000000   0.000000   0.000000   0.000000  
A4               A4               A5               7.500000   0.011000   0.000000   0.000000   0.000000   0.000000  
A5               A5               OUTFALLA         7.500000   0.011000   0.000000   0.000000   0.000000   0.000000  
B10              B9               B10              2.000000   0.011000   0.000000   0.000000   0.000000   0.000000  
B11              B10              B11              2.000000   0.011000   0.000000   0.000000   0.000000   0.000000  
B12              B11              OUTFALLB         1.000000   0.011000   0.000000   0.000000   0.000000   0.000000  
B2               B2               B3               1.000000   0.011000   0.000000   0.000000   0.000000   0.000000  
B3               B3               B4               1.000000   0.011000   0.000000   0.000000   0.000000   0.000000  
B5               B4               B5               2.000000   0.011000   0.000000   0.000000   0.000000   0.000000  
B6               B5               B6               2.000000   0.011000   0.000000   0.000000   0.000000   0.000000  
B7               B6               B7               2.000000   0.011000   0.000000   0.000000   0.000000   0.000000  
B8               B7               B8               2.000000   0.011000   0.000000   0.000000   0.000000   0.000000  
B9               B8               B9               2.000000   0.011000   0.000000   0.000000   0.000000   0.000000  
C10              C9               C10              1.000000   0.011000   0.000000   0.000000   0.000000   0.000000  
C11              C10              C11              1.000000   0.011000   0.000000   0.000000   0.000000   0.000000  
C12              C11              C12              1.000000   0.011000   0.000000   0.000000   0.000000   0.000000  
C13              C12              C13              1.000000   0.011000   0.000000   0.000000   0.000000   0.000000  
C14              C13              C14              1.000000   0.011000   0.000000   0.000000   0.000000   0.000000  
C15              C14              C15              1.000000   0.011000   0.000000   0.000000   0.000000   0.000000  
C16              C15              C16              1.000000   0.011000   0.000000   0.000000   0.000000   0.000000  
C17              C16              C17              1.000000   0.011000   0.000000   0.000000   0.000000   0.000000  
C18              C17              C18              1.000000   0.011000   0.000000   0.000000   0.000000   0.000000  
C19              C18              OUTFALLC         1.000000   0.011000   0.000000   0.000000   0.000000   0.000000  
C2               C2               C3               1.000000   0.011000   0.000000   0.000000   0.000000   0.000000  
C3               C3               C4               1.000000   0.011000   0.000000   0.000000   0.000000   0.000000  
C5               C4               C5               1.000000   0.011000   0.000000   0.000000   0.000000   0.000000  
C6               C5               C6               1.000000   0.011000   0.000000   0.000000   0.000000   0.000000  
C7               C6               C7               1.000000   0.011000   0.000000   0.000000   0.000000   0.000000  
C8               C7               C8               1.000000   0.011000   0.000000   0.000000   0.000000   0.000000  
C9               C8               C9               1.000000   0.011000   0.000000   0.000000   0.000000   0.000000  

[XSECTIONS]
;;Link           Shape        Geom1            Geom2      Geom3      Geom4      Barrels    Culvert   
;;-------------- ------------ ---------------- ---------- ---------- ---------- ---------- ----------
2                TRAPEZOIDAL  1.000000         0.000000   2.400000   2.400000   1          0         
3                TRAPEZOIDAL  1.000000         0.000000   1.800000   1.800000   1          0         
5                TRAPEZOIDAL  1.000000         0.000000   1.190000   1.190000   1          0         
A2               TRAPEZOIDAL  1.000000         0.000000   2.400000   2.400000   1          0         
A3               TRAPEZOIDAL  1.000000         0.000000   1.800000   1.800000   1          0         
A4               TRAPEZOIDAL  1.000000         0.000000   1.190000   1.190000   1          0         
A5               TRAPEZOIDAL  1.000000         0.000000   1.190000   1.190000   1          0         
B10              TRAPEZOIDAL  1.000000         0.000000   1.190000   1.190000   1          0         
B11              TRAPEZOIDAL  1.000000         0.000000   1.190000   1.190000   1          0         
B12              TRAPEZOIDAL  1.000000         0.000000   1.190000   1.190000   1          0         
B2               TRAPEZOIDAL  1.000000         0.000000   2.400000   2.400000   1          0         
B3               TRAPEZOIDAL  1.000000         0.000000   1.800000   1.800000   1          0         
B5               TRAPEZOIDAL  1.000000         0.000000   1.190000   1.190000   1          0         
B6               TRAPEZOIDAL  1.000000         0.000000   1.190000   1.190000   1          0         
B7               TRAPEZOIDAL  1.000000         0.000000   1.190000   1.190000   1          0         
B8               TRAPEZOIDAL  1.000000         0.000000   1.190000   1.190000   1          0         
B9               TRAPEZOIDAL  1.000000         0.000000   1.190000   1.190000   1          0         
C10              TRAPEZOIDAL  1.000000         0.000000   1.190000   1.190000   1          0         
C11              TRAPEZOIDAL  1.000000         0.000000   1.190000   1.190000   1          0         
C12              TRAPEZOIDAL  1.000000         0.000000   1.190000   1.190000   1          0         
C13              TRAPEZOIDAL  1.000000         0.000000   1.190000   1.190000   1          0         
C14              TRAPEZOIDAL  1.000000         0.000000   1.190000   1.190000   1          0         
C15              TRAPEZOIDAL  1.000000         0.000000   1.190000   1.190000   1          0         
C16              TRAPEZOIDAL  1.000000         0.000000   1.190000   1.190000   1          0         
C17              TRAPEZOIDAL  1.000000         0.000000   1.190000   1.190000   1          0         
C18              TRAPEZOIDAL  1.000000         0.000000   1.190000   1.190000   1          0         
C19              TRAPEZOIDAL  1.000000         0.000000   1.190000   1.190000   1          0         
C2               TRAPEZOIDAL  1.000000         0.000000   2.400000   2.400000   1          0         
C3               TRAPEZOIDAL  1.000000         0.000000   1.800000   1.800000   1          0         
C5               TRAPEZOIDAL  1.000000         0.000000   1.190000   1.190000   1          0         
C6               TRAPEZOIDAL  1.000000         0.000000   1.190000   1.190000   1          0         
C7               TRAPEZOIDAL  1.000000         0.000000   1.190000   1.190000   1          0         
C8               TRAPEZOIDAL  1.000000         0.000000   1.190000   1.190000   1          0         
C9               TRAPEZOIDAL  1.000000         0.000000   1.190000   1.190000   1          0         

[LOSSES]
;;Link           Kentry     Kexit      Kavg       Flap Gate  Seepage   
;;-------------- ---------- ---------- ---------- ---------- ----------
2                0.000000   0.000000   0.000000   NO         0         
3                0.000000   0.000000   0.000000   NO         0         
5                0.000000   0.000000   0.000000   NO         0         
A2               0.000000   0.000000   0.000000   NO         0         
A3               0.000000   0.000000   0.000000   NO         0         
A4               0.000000   0.000000   0.000000   NO         0         
A5               0.000000   0.000000   0.000000   NO         0         
B10              0.000000   0.000000   0.000000   NO         0         
B11              0.000000   0.000000   0.000000   NO         0         
B12              0.000000   0.000000   0.000000   NO         0         
B2               0.000000   0.000000   0.000000   NO         0         
B3               0.000000   0.000000   0.000000   NO         0         
B5               0.000000   0.000000   0.000000   NO         0         
B6               0.000000   0.000000   0.000000   NO         0         
B7               0.000000   0.000000   0.000000   NO         0         
B8               0.000000   0.000000   0.000000   NO         0         
B9               0.000000   0.000000   0.000000   NO         0         
C10              0.000000   0.000000   0.000000   NO         0         
C11              0.000000   0.000000   0.000000   NO         0         
C12              0.000000   0.000000   0.000000   NO         0         
C13              0.000000   0.000000   0.000000   NO         0         
C14              0.000000   0.000000   0.000000   NO         0         
C15              0.000000   0.000000   0.000000   NO         0         
C16              0.000000   0.000000   0.000000   NO         0         
C17              0.000000   0.000000   0.000000   NO         0         
C18              0.000000   0.000000   0.000000   NO         0         
C19              0.000000   0.000000   0.000000   NO         0         
C2               0.000000   0.000000   0.000000   NO         0         
C3               0.000000   0.000000   0.000000   NO         0         
C5               0.000000   0.000000   0.000000   NO         0         
C6               0.000000   0.000000   0.000000   NO         0         
C7               0.000000   0.000000   0.000000   NO         0         
C8               0.000000   0.000000   0.000000   NO         0         
C9               0.000000   0.000000   0.000000   NO         0         

[CONTROLS]
;;Control Rules
;;Control Rules







[REPORT]
;;Reporting Options
INPUT      YES
CONTROLS   NO
SUBCATCHMENTS ALL
NODES ALL
LINKS ALL

[TAGS]

[MAP]
DIMENSIONS -0.235 0.568 0.423 0.839
Units      None

[COORDINATES]
;;Node           X-Coord            Y-Coord           
;;-------------- ------------------ ------------------
3                -0.077             0.805             
4                -0.017             0.786             
A3               -0.093             0.765             
A4               -0.032             0.746             
A5               0.144              0.697             
B10              0.252              0.638             
B11              0.300              0.626             
B3               -0.111             0.732             
B4               -0.045             0.713             
B5               0.004              0.700             
B6               0.045              0.690             
B7               0.088              0.679             
B8               0.140              0.665             
B9               0.197              0.652             
C10              0.105              0.639             
C11              0.131              0.630             
C12              0.159              0.622             
C13              0.183              0.615             
C14              0.206              0.611             
C15              0.238              0.605             
C16              0.270              0.600             
C17              0.297              0.595             
C18              0.330              0.588             
C3               -0.126             0.702             
C4               -0.060             0.683             
C5               -0.028             0.674             
C6               -0.003             0.667             
C7               0.023              0.662             
C8               0.046              0.656             
C9               0.074              0.648             
A2               -0.156             0.787             
B2               -0.174             0.752             
C2               -0.205             0.729             
OUTFALL1         0.393              0.653             
OUTFALLA         0.389              0.629             
OUTFALLB         0.384              0.610             
OUTFALLC         0.383              0.580             
2                -0.140             0.827             

[VERTICES]
;;Link           X-Coord            Y-Coord           
;;-------------- ------------------ ------------------

