[OPTIONS]
;Option and Files Scenario Set: BASE
FLOW_UNITS	CFS
INFILTRATION	HORTON
FLOW_ROUTING	DYNWAVE
ALLOW_PONDING	NO
DRY_DAYS	5.000000
SKIP_STEADY_STATE 	NO
IGNORE_RAINFALL	NO
IGNORE_SNOWMELT	NO
IGNORE_GROUNDWATER	NO
IGNORE_QUALITY	NO
FORCE_MAIN_EQUATION	H-W
LINK_OFFSETS	DEPTH
MIN_SLOPE	0.000000
START_DATE	01/01/2002
START_TIME	00:00
END_DATE	01/01/2002
END_TIME	23:00
REPORT_START_DATE	01/01/2002
REPORT_START_TIME	00:00
SWEEP_START	01/01
SWEEP_END	12/31
WET_STEP	01:00:00
DRY_STEP	23:00:00
ROUTING_STEP	30
REPORT_STEP	00:05:00
INERTIAL_DAMPING	NONE
VARIABLE_STEP	0.750000
MINIMUM_STEP	0.5
LENGTHENING_STEP	0
MIN_SURFAREA	0.000000
NORMAL_FLOW_LIMITED	BOTH
MAX_TRIALS	4
HEAD_TOLERANCE	0.005000

[FILES]

[RAINGAGES]
RG_SEWER_RAINFALL	INTENSITY	0.250000	1.000000	TIMESERIES	RAINFALL		
RG_SEWER_RAINFALL2	INTENSITY	0.250000	1.000000	TIMESERIES	RAINFALL2		

[HYDROGRAPHS]

[TEMPERATURE]

[ADJUSTMENTS]

[SUBCATCHMENTS]
SC_SEWER_44	RG_SEWER_RAINFALL2	44	5.000000	0.000000	4356.000000	5.000000	0.000000
SC_SEWER_52	RG_SEWER_RAINFALL2	52	5.000000	0.000000	4356.000000	5.000000	0.000000
SC_SEWER_54	RG_SEWER_RAINFALL2	54	5.000000	0.000000	4356.000000	5.000000	0.000000
SC_SEWER_901	RG_SEWER_RAINFALL2	901	5.000000	0.000000	4356.000000	5.000000	0.000000
SC_SEWER_917	RG_SEWER_RAINFALL2	917	5.000000	0.000000	4356.000000	5.000000	0.000000
SC_SEWER_918	RG_SEWER_RAINFALL2	918	5.000000	0.000000	4356.000000	5.000000	0.000000
SC_SEWER_919	RG_SEWER_RAINFALL2	919	5.000000	0.000000	4356.000000	5.000000	0.000000
SC_SEWER_920	RG_SEWER_RAINFALL	920	5.000000	0.000000	4356.000000	5.000000	0.000000
SC_SEWER_921	RG_SEWER_RAINFALL	921	5.000000	0.000000	4356.000000	5.000000	0.000000
SC_SEWER_922	RG_SEWER_RAINFALL	922	5.000000	0.000000	4356.000000	5.000000	0.000000
SC_SEWER_923	RG_SEWER_RAINFALL	923	5.000000	0.000000	4356.000000	5.000000	0.000000
SC_SEWER_924	RG_SEWER_RAINFALL	924	5.000000	0.000000	4356.000000	5.000000	0.000000
SC_SEWER_925	RG_SEWER_RAINFALL	925	5.000000	0.000000	4356.000000	5.000000	0.000000
SC_SEWER_926	RG_SEWER_RAINFALL	926	5.000000	0.000000	4356.000000	5.000000	0.000000
SC_SEWER_927	RG_SEWER_RAINFALL	927	5.000000	0.000000	4356.000000	5.000000	0.000000
SC_SEWER_934	RG_SEWER_RAINFALL	934	5.000000	0.000000	4356.000000	5.000000	0.000000
SC_SEWER_JC48	RG_SEWER_RAINFALL2	JC48	5.000000	0.000000	4356.000000	5.000000	0.000000
SC_SEWER_OUTLET94	RG_SEWER_RAINFALL2	OUTLET94	5.000000	0.000000	4356.000000	5.000000	0.000000

[SUBAREAS]
SC_SEWER_44	0.001000	0.100000	0.000000	0.000000	25.000000	OUTLET
SC_SEWER_52	0.001000	0.100000	0.000000	0.000000	25.000000	OUTLET
SC_SEWER_54	0.001000	0.100000	0.000000	0.000000	25.000000	OUTLET
SC_SEWER_901	0.001000	0.100000	0.000000	0.000000	25.000000	OUTLET
SC_SEWER_917	0.001000	0.100000	0.000000	0.000000	25.000000	OUTLET
SC_SEWER_918	0.001000	0.100000	0.000000	0.000000	25.000000	OUTLET
SC_SEWER_919	0.001000	0.100000	0.000000	0.000000	25.000000	OUTLET
SC_SEWER_920	0.001000	0.100000	0.000000	0.000000	25.000000	OUTLET
SC_SEWER_921	0.001000	0.100000	0.000000	0.000000	25.000000	OUTLET
SC_SEWER_922	0.001000	0.100000	0.000000	0.000000	25.000000	OUTLET
SC_SEWER_923	0.001000	0.100000	0.000000	0.000000	25.000000	OUTLET
SC_SEWER_924	0.001000	0.100000	0.000000	0.000000	25.000000	OUTLET
SC_SEWER_925	0.001000	0.100000	0.000000	0.000000	25.000000	OUTLET
SC_SEWER_926	0.001000	0.100000	0.000000	0.000000	25.000000	OUTLET
SC_SEWER_927	0.001000	0.100000	0.000000	0.000000	25.000000	OUTLET
SC_SEWER_934	0.001000	0.100000	0.000000	0.000000	25.000000	OUTLET
SC_SEWER_JC48	0.001000	0.100000	0.000000	0.000000	25.000000	OUTLET
SC_SEWER_OUTLET94	0.001000	0.100000	0.000000	0.000000	25.000000	OUTLET

[INFILTRATION]

[AQUIFERS]

[GROUNDWATER]

[GWF]

[SNOWPACKS]

[JUNCTIONS]
44	275.800000	2.200000	0.000000	0.000000	0.000000
52	292.200000	0.800000	0.000000	1000.000000	0.000000
54	290.500000	2.400000	0.000000	0.000000	0.000000
901	277.800000	1.200000	0.000000	0.000000	0.000000
903	281.200000	0.800000	0.000000	0.000000	0.000000
; New Manhole
917	283.200000	0.800000	0.000000	0.000000	0.000000
; New Manhole
918	279.800000	1.200000	0.000000	0.000000	0.000000
; New Manhole
919	274.200000	0.800000	0.000000	0.000000	0.000000
; New Manhole
920	272.800000	0.700000	0.000000	0.000000	0.000000
; New Manhole
921	295.600000	0.900000	0.000000	0.000000	0.000000
; New Manhole
922	294.000000	2.000000	0.000000	0.000000	0.000000
; New Manhole
923	292.800000	2.200000	0.000000	0.000000	0.000000
; New Manhole
924	291.800000	2.200000	0.000000	0.000000	0.000000
; New Manhole
925	297.400000	0.600000	0.000000	0.000000	0.000000
; New Manhole
926	298.800000	0.700000	0.000000	0.000000	0.000000
; New Manhole
927	301.200000	0.800000	0.000000	0.000000	0.000000
; New Manhole
934	275.000000	5.000000	0.000000	0.000000	0.000000
JC48	274.000000	7.000000	0.000000	1000.000000	0.000000

[OUTFALLS]
OUTLET94	289.000000	FREE	NO

[DIVIDERS]

[STORAGE]
WW48	266.000000	18.000000	6.000000	FUNCTIONAL	0.000000	0.000000	113.097336	0.000000	0.000000

[CONDUITS]
53	52	54	624.000000	0.010000	0.300000	0.500000	0.000000	0.000000
; New Pipe
911	54	OUTLET94	400.000000	0.013000	0.000000	0.000000	0.000000	0.000000
913	901	44	679.000000	0.014000	0.000000	0.200000	0.000000	0.000000
917	903	918	200.000000	0.014000	0.000000	0.200000	0.000000	0.000000
; New Pipe
929	917	903	150.000000	0.011200	0.000000	0.265000	0.000000	0.000000
; New Pipe
930	918	901	500.000000	0.014000	0.000000	0.200000	0.000000	0.000000
; New Pipe
934	921	922	150.000000	0.014000	0.000000	0.200000	0.000000	0.000000
; New Pipe
935	922	923	200.000000	0.014000	0.000000	0.200000	0.000000	0.000000
; New Pipe
936	923	924	200.000000	0.014000	0.000000	0.200000	0.000000	0.000000
; New Pipe
937	924	54	120.000000	0.014000	0.000000	0.500000	0.000000	0.000000
; New Pipe
938	44	919	150.000000	0.014000	0.000000	0.200000	0.000000	0.000000
; New Pipe
939	919	920	120.000000	0.014000	0.000000	0.200000	0.000000	0.000000
; New Pipe
940	920	WW48	150.000000	0.014000	0.000000	0.000000	0.000000	0.000000
; New Pipe
941	927	926	200.000000	0.014000	0.000000	0.200000	0.000000	0.000000
; New Pipe
942	926	925	150.000000	0.014000	0.000000	0.200000	0.000000	0.000000
; New Pipe
943	925	921	150.000000	0.014000	0.000000	0.200000	0.000000	0.000000
; New Pipe
947	934	52	200.000000	0.010000	0.000000	0.000000	0.000000	0.000000
FM51	JC48	52	500.000000	0.010000	0.000000	0.000000	0.000000	0.000000

[PUMPS]
; New Pump
P51	WW48	JC48	PC_P51	ON	0.000000	0.000000

[ORIFICES]

[WEIRS]

[XSECTIONS]
53	FORCE_MAIN	1.000000	110.000000	0.000000	0.000000	1	0
911	CIRCULAR	1.000000	0.000000	0.000000	0.000000	1	0
913	CIRCULAR	1.000000	0.000000	0.000000	0.000000	1	0
917	CIRCULAR	0.666667	0.000000	0.000000	0.000000	1	0
929	CIRCULAR	0.666667	0.000000	0.000000	0.000000	1	0
930	CIRCULAR	1.000000	0.000000	0.000000	0.000000	1	0
934	CIRCULAR	1.000000	0.000000	0.000000	0.000000	1	0
935	CIRCULAR	1.000000	0.000000	0.000000	0.000000	1	0
936	CIRCULAR	1.000000	0.000000	0.000000	0.000000	1	0
937	CIRCULAR	1.000000	0.000000	0.000000	0.000000	1	0
938	CIRCULAR	1.000000	0.000000	0.000000	0.000000	1	0
939	CIRCULAR	1.000000	0.000000	0.000000	0.000000	1	0
940	CIRCULAR	1.000000	0.000000	0.000000	0.000000	1	0
941	CIRCULAR	0.666667	0.000000	0.000000	0.000000	1	0
942	CIRCULAR	0.666667	0.000000	0.000000	0.000000	1	0
943	CIRCULAR	1.000000	0.000000	0.000000	0.000000	1	0
947	FORCE_MAIN	0.500000	110.000000	0.000000	0.000000	1	0
FM51	FORCE_MAIN	0.500000	130.001000	0.000000	0.000000	1	0

[TRANSECTS]

[LOSSES]
53	0.000000	0.600000	0.000000	NO	0.000000
911	0.000000	0.600000	0.000000	NO	0.000000
913	0.000000	0.800000	0.000000	NO	0.000000
917	0.000000	0.600000	0.000000	NO	0.000000
929	0.000000	0.600000	0.000000	NO	0.000000
930	0.000000	0.600000	0.000000	NO	0.000000
934	0.000000	0.600000	0.000000	NO	0.000000
935	0.000000	0.060000	0.000000	NO	0.000000
936	0.000000	0.800000	0.000000	NO	0.000000
937	0.000000	0.600000	0.000000	NO	0.000000
938	0.000000	0.400000	0.000000	NO	0.000000
939	0.000000	0.600000	0.000000	NO	0.000000
940	0.000000	0.600000	0.000000	NO	0.000000
941	0.000000	0.600000	0.000000	NO	0.000000
942	0.000000	0.600000	0.000000	NO	0.000000
943	0.000000	0.600000	0.000000	NO	0.000000
947	0.000000	0.600000	0.000000	NO	0.000000
FM51	0.000000	0.600000	0.000000	NO	0.000000

[CONTROLS]

[POLLUTANTS]

[LANDUSES]

[COVERAGES]

[BUILDUP]

[WASHOFF]

[TREATMENT]

[INFLOWS]

[DWF]
44	FLOW	1.250000	"1_LOAD"	""	""	""
54	FLOW	1.250000	"1_LOAD"	""	""	""
901	FLOW	1.250000	"1_LOAD"	""	""	""
917	FLOW	1.250000	"1_LOAD"	""	""	""
918	FLOW	1.250000	"1_LOAD"	""	""	""
919	FLOW	1.250000	"1_LOAD"	""	""	""
920	FLOW	1.250000	"1_LOAD"	""	""	""
921	FLOW	1.250000	"1_LOAD"	""	""	""
922	FLOW	1.250000	"1_LOAD"	""	""	""
923	FLOW	1.250000	"1_LOAD"	""	""	""
924	FLOW	1.250000	"1_LOAD"	""	""	""
925	FLOW	1.250000	"1_LOAD"	""	""	""
926	FLOW	1.250000	"1_LOAD"	""	""	""
927	FLOW	1.250000	"1_LOAD"	""	""	""
934	FLOW	2.000000	"1_LOAD"	""	""	""
OUTLET94	FLOW	1.250000	"1_LOAD"	""	""	""

[RDII]

[LOADINGS]

[CURVES]
; 
PC_P51	PUMP3	50.000000	2.000000
PC_P51	300.000000	1.000000
PC_P51	400.000000	0.000000

[TIMESERIES]
RAINFALL	00:00:00	1.000000
RAINFALL	00:15:00	1.000000
RAINFALL	00:30:00	1.000000
RAINFALL	00:45:00	1.000000
RAINFALL	01:00:00	2.000000
RAINFALL	01:15:00	2.000000
RAINFALL	01:30:00	1.500000
RAINFALL	01:45:00	1.500000
RAINFALL	02:00:00	1.000000
RAINFALL	02:15:00	1.000000
RAINFALL	02:30:00	0.000000

RAINFALL2	00:00:00	1.000000
RAINFALL2	00:15:00	1.000000
RAINFALL2	00:30:00	3.500000
RAINFALL2	00:45:00	3.500000
RAINFALL2	01:00:00	3.500000
RAINFALL2	01:15:00	3.500000
RAINFALL2	01:30:00	2.000000
RAINFALL2	01:45:00	2.000000
RAINFALL2	02:00:00	1.500000
RAINFALL2	02:15:00	1.500000
RAINFALL2	02:30:00	0.000000


[PATTERNS]
; 
1_LOAD	HOURLY	0.100000	0.200000	0.300000	0.100000	0.100000
1_LOAD	0.100000	0.100000	0.100000	0.000000	0.000000
1_LOAD	0.000000	0.000000	0.000000	0.400000	0.100000
1_LOAD	0.200000	0.100000	0.200000	0.300000	0.100000
1_LOAD	0.200000	0.100000	0.100000	0.100000

[REPORT]
;Report Option Set: BASE, Base Simulation Report
INPUT NO
CONTINUITY YES
FLOWSTATS YES
CONTROLS NO
SUBCATCHMENTS  ALL
NODES  ALL
LINKS  ALL

[COORDINATES]
44	829.347072	1278.332780
52	1545.000000	710.000000
54	1630.000000	1315.000000
901	603.878806	1657.109424
903	402.823362	2069.027895
917	321.831208	2351.551040
918	502.855974	1869.895857
919	939.254966	1107.005769
920	1068.558371	887.189980
921	2206.428333	1514.311494
922	2180.567652	1352.682238
923	2002.775471	1339.751897
924	1799.122608	1326.821557
925	2193.497993	1827.872251
926	2199.963163	2312.760019
927	2216.126089	2700.670233
934	1438.915374	950.136940
JC48	1406.725417	705.322636
OUTLET94	1495.844788	1718.609614
WW48	1289.214153	698.258916


[POLYGONS]

SC_SEWER_44	829.347072	1278.332780
SC_SEWER_44	829.347072	1328.332780
SC_SEWER_44	879.347072	1328.332780
SC_SEWER_44	879.347072	1278.332780

SC_SEWER_52	1545.000000	710.000000
SC_SEWER_52	1545.000000	760.000000
SC_SEWER_52	1595.000000	760.000000
SC_SEWER_52	1595.000000	710.000000

SC_SEWER_54	1630.000000	1315.000000
SC_SEWER_54	1630.000000	1365.000000
SC_SEWER_54	1680.000000	1365.000000
SC_SEWER_54	1680.000000	1315.000000

SC_SEWER_901	603.878806	1657.109424
SC_SEWER_901	603.878806	1707.109424
SC_SEWER_901	653.878806	1707.109424
SC_SEWER_901	653.878806	1657.109424

SC_SEWER_917	321.831208	2351.551040
SC_SEWER_917	321.831208	2401.551040
SC_SEWER_917	371.831208	2401.551040
SC_SEWER_917	371.831208	2351.551040

SC_SEWER_918	502.855974	1869.895857
SC_SEWER_918	502.855974	1919.895857
SC_SEWER_918	552.855974	1919.895857
SC_SEWER_918	552.855974	1869.895857

SC_SEWER_919	939.254966	1107.005769
SC_SEWER_919	939.254966	1157.005769
SC_SEWER_919	989.254966	1157.005769
SC_SEWER_919	989.254966	1107.005769

SC_SEWER_920	1068.558371	887.189980
SC_SEWER_920	1068.558371	937.189980
SC_SEWER_920	1118.558371	937.189980
SC_SEWER_920	1118.558371	887.189980

SC_SEWER_921	2206.428333	1514.311494
SC_SEWER_921	2206.428333	1564.311494
SC_SEWER_921	2256.428333	1564.311494
SC_SEWER_921	2256.428333	1514.311494

SC_SEWER_922	2180.567652	1352.682238
SC_SEWER_922	2180.567652	1402.682238
SC_SEWER_922	2230.567652	1402.682238
SC_SEWER_922	2230.567652	1352.682238

SC_SEWER_923	2002.775471	1339.751897
SC_SEWER_923	2002.775471	1389.751897
SC_SEWER_923	2052.775471	1389.751897
SC_SEWER_923	2052.775471	1339.751897

SC_SEWER_924	1799.122608	1326.821557
SC_SEWER_924	1799.122608	1376.821557
SC_SEWER_924	1849.122608	1376.821557
SC_SEWER_924	1849.122608	1326.821557

SC_SEWER_925	2193.497993	1827.872251
SC_SEWER_925	2193.497993	1877.872251
SC_SEWER_925	2243.497993	1877.872251
SC_SEWER_925	2243.497993	1827.872251

SC_SEWER_926	2199.963163	2312.760019
SC_SEWER_926	2199.963163	2362.760019
SC_SEWER_926	2249.963163	2362.760019
SC_SEWER_926	2249.963163	2312.760019

SC_SEWER_927	2216.126089	2700.670233
SC_SEWER_927	2216.126089	2750.670233
SC_SEWER_927	2266.126089	2750.670233
SC_SEWER_927	2266.126089	2700.670233

SC_SEWER_934	1438.915374	950.136940
SC_SEWER_934	1438.915374	1000.136940
SC_SEWER_934	1488.915374	1000.136940
SC_SEWER_934	1488.915374	950.136940

SC_SEWER_JC48	1406.725417	705.322636
SC_SEWER_JC48	1406.725417	755.322636
SC_SEWER_JC48	1456.725417	755.322636
SC_SEWER_JC48	1456.725417	705.322636

SC_SEWER_OUTLET94	1495.844788	1718.609614
SC_SEWER_OUTLET94	1495.844788	1768.609614
SC_SEWER_OUTLET94	1545.844788	1768.609614
SC_SEWER_OUTLET94	1545.844788	1718.609614

[VERTICES]

53	1557.457049	1018.471895
53	1557.457049	1172.371149
53	1591.367054	1266.275778
941	2199.963163	2303.062263

[SYMBOLS]
RG_SEWER_RAINFALL	2310.840833	1793.930107
RG_SEWER_RAINFALL2	227.116464	1528.436838

[MAP]
DIMENSIONS	122.930245	595.638350	2415.027051	2853.290799

