[TITLE]
;;Project Title/Notes

[OPTIONS]
;;Option             Value
FLOW_UNITS           LPS
INFILTRATION         HORTON
FLOW_ROUTING         KINWAVE
LINK_OFFSETS         DEPTH
MIN_SLOPE            0
ALLOW_PONDING        YES
SKIP_STEADY_STATE    NO

START_DATE           01/01/2002
START_TIME           00:00:00
REPORT_START_DATE    01/01/2002
REPORT_START_TIME    00:00:00
END_DATE             01/01/2002
END_TIME             23:00:00
SWEEP_START          01/01
SWEEP_END            12/31
DRY_DAYS             0
REPORT_STEP          00:15:00
WET_STEP             00:15:00
DRY_STEP             24:00:00
ROUTING_STEP         0:00:30 

INERTIAL_DAMPING     NONE
NORMAL_FLOW_LIMITED  SLOPE
FORCE_MAIN_EQUATION  H-W
VARIABLE_STEP        0.00
LENGTHENING_STEP     5
MIN_SURFAREA         0.75
MAX_TRIALS           8
HEAD_TOLERANCE       0.0015
SYS_FLOW_TOL         5
LAT_FLOW_TOL         5
MINIMUM_STEP         0.5
THREADS              1

[EVAPORATION]
;;Data Source    Parameters
;;-------------- ----------------
CONSTANT         0.0
DRY_ONLY         NO

[JUNCTIONS]
;;Name           Elevation  MaxDepth   InitDepth  SurDepth   Aponded   
;;-------------- ---------- ---------- ---------- ---------- ----------
MH143            115.976000 2.417000   0.000000   0.000000   0.000000  
MH144            115.556000 2.322000   0.000000   0.000000   0.000000  
MH145            115.370000 2.749000   0.000000   0.000000   0.000000  
MH153            115.190000 2.594000   0.000000   0.000000   0.000000  
MH154            114.860000 2.287000   0.000000   0.000000   0.000000  
MH157            114.710000 0.940000   0.000000   0.000000   0.000000  
MH158            114.640000 1.046000   0.000000   0.000000   0.000000  
MH159            114.490000 5.184000   0.000000   0.000000   0.000000  
MH164            114.460000 5.211000   0.000000   0.000000   0.000000  
MH165            114.410000 5.026000   0.000000   0.000000   0.000000  
MH167            114.250000 4.698000   0.000000   0.000000   0.000000  
MH171            114.080000 3.090000   0.000000   0.000000   0.000000  
MH182            113.850000 4.501000   0.000000   0.000000   0.000000  
MH186            113.560000 4.824000   0.000000   0.000000   0.000000  
MH187            113.310000 3.645000   0.000000   0.000000   0.000000  
MH217            111.670000 4.279000   0.000000   0.000000   0.000000  
MH218            111.220000 3.726000   0.000000   0.000000   0.000000  
MH222            110.980000 3.407000   0.000000   0.000000   0.000000  
MH224            110.480000 3.394000   0.000000   0.000000   0.000000  
MH235            108.600000 5.400000   0.000000   0.000000   0.000000  

[OUTFALLS]
;;Name           Elevation  Type       Stage Data       Gated    Route To        
;;-------------- ---------- ---------- ---------------- -------- ----------------
OUTLET           108.560000 FIXED      108.000000       NO                       

[CONDUITS]
;;Name           From Node        To Node          Length     Roughness  InOffset   OutOffset  InitFlow   MaxFlow   
;;-------------- ---------------- ---------------- ---------- ---------- ---------- ---------- ---------- ----------
; New Pipe
11               MH143            MH144            134.700000 0.013000   0.000000   0.014000   0.000000   0.000000  
; New Pipe
13               MH144            MH145            92.000000  0.013000   0.000000   0.010000   0.000000   0.000000  
; New Pipe
15               MH145            MH153            91.700000  0.013000   0.000000   0.010000   0.000000   0.000000  
; New Pipe
17               MH153            MH154            129.200000 0.013000   0.000000   0.000000   0.000000   0.000000  
; New Pipe
19               MH154            MH157            81.300000  0.013000   0.000000   0.030000   0.000000   0.000000  
; New Pipe
21               MH157            MH158            36.300000  0.013000   0.000000   0.000000   0.000000   0.000000  
; New Pipe
23               MH158            MH159            50.000000  0.013000   0.000000   0.000000   0.000000   0.000000  
; New Pipe
25               MH159            MH164            56.700000  0.013000   0.000000   0.000000   0.000000   0.000000  
; New Pipe
27               MH164            MH165            37.900000  0.013000   0.000000   0.000000   0.000000   0.000000  
; New Pipe
29               MH165            MH167            68.600000  0.013000   0.000000   0.000000   0.000000   0.000000  
; New Pipe
31               MH167            MH171            92.700000  0.013000   0.000000   0.000000   0.000000   0.000000  
; New Pipe
33               MH171            MH182            101.700000 0.013000   0.000000   0.000000   0.000000   0.000000  
; New Pipe
35               MH182            MH186            95.600000  0.013000   0.000000   0.000000   0.000000   0.000000  
; New Pipe
37               MH186            MH187            136.200000 0.013000   0.000000   0.000000   0.000000   0.000000  
; New Pipe
39               MH187            MH217            138.600000 0.013000   0.000000   1.290000   0.000000   0.000000  
; New Pipe
41               MH217            MH218            57.500000  0.013000   0.000000   0.030000   0.000000   0.000000  
; New Pipe
43               MH218            MH222            49.500000  0.013000   0.000000   0.020000   0.000000   0.000000  
; New Pipe
45               MH222            MH224            94.600000  0.013000   0.000000   0.000000   0.000000   0.000000  
; New Pipe
47               MH224            MH235            75.000000  0.013000   0.050000   1.400000   0.000000   0.000000  
; New Pipe
49               MH235            OUTLET           7.900000   0.013000   0.000000   0.000000   0.000000   0.000000  

[XSECTIONS]
;;Link           Shape        Geom1            Geom2      Geom3      Geom4      Barrels    Culvert   
;;-------------- ------------ ---------------- ---------- ---------- ---------- ---------- ----------
11               CIRCULAR     0.250000         0.000000   0.000000   0.000000   1          0         
13               CIRCULAR     0.375000         0.000000   0.000000   0.000000   1          0         
15               CIRCULAR     0.375000         0.000000   0.000000   0.000000   1          0         
17               CIRCULAR     0.375000         0.000000   0.000000   0.000000   1          0         
19               CIRCULAR     0.375000         0.000000   0.000000   0.000000   1          0         
21               CIRCULAR     0.375000         0.000000   0.000000   0.000000   1          0         
23               CIRCULAR     0.375000         0.000000   0.000000   0.000000   1          0         
25               CIRCULAR     0.375000         0.000000   0.000000   0.000000   1          0         
27               CIRCULAR     0.375000         0.000000   0.000000   0.000000   1          0         
29               CIRCULAR     0.375000         0.000000   0.000000   0.000000   1          0         
31               CIRCULAR     0.375000         0.000000   0.000000   0.000000   1          0         
33               CIRCULAR     0.375000         0.000000   0.000000   0.000000   1          0         
35               CIRCULAR     0.375000         0.000000   0.000000   0.000000   1          0         
37               CIRCULAR     0.525000         0.000000   0.000000   0.000000   1          0         
39               CIRCULAR     0.525000         0.000000   0.000000   0.000000   1          0         
41               CIRCULAR     0.600000         0.000000   0.000000   0.000000   1          0         
43               CIRCULAR     0.600000         0.000000   0.000000   0.000000   1          0         
45               CIRCULAR     0.600000         0.000000   0.000000   0.000000   1          0         
47               CIRCULAR     0.600000         0.000000   0.000000   0.000000   1          0         
49               CIRCULAR     0.600000         0.000000   0.000000   0.000000   1          0         

[LOSSES]
;;Link           Kentry     Kexit      Kavg       Flap Gate  Seepage   
;;-------------- ---------- ---------- ---------- ---------- ----------
11               0.000000   0.050000   0.000000   NO         0.000000  
13               0.000000   0.050000   0.000000   NO         0.000000  
15               0.000000   0.050000   0.000000   NO         0.000000  
17               0.000000   0.050000   0.000000   NO         0.000000  
19               0.000000   0.050000   0.000000   NO         0.000000  
21               0.000000   0.050000   0.000000   NO         0.000000  
23               0.000000   0.050000   0.000000   NO         0.000000  
25               0.000000   0.050000   0.000000   NO         0.000000  
27               0.000000   0.050000   0.000000   NO         0.000000  
29               0.000000   0.050000   0.000000   NO         0.000000  
31               0.000000   0.050000   0.000000   NO         0.000000  
33               0.000000   0.050000   0.000000   NO         0.000000  
35               0.000000   0.050000   0.000000   NO         0.000000  
37               0.000000   0.050000   0.000000   NO         0.000000  
39               0.000000   0.050000   0.000000   NO         0.000000  
41               0.000000   0.050000   0.000000   NO         0.000000  
43               0.000000   0.050000   0.000000   NO         0.000000  
45               0.000000   0.050000   0.000000   NO         0.000000  
47               0.000000   0.050000   0.000000   NO         0.000000  
49               0.000000   0.050000   0.000000   NO         0.000000  

[CONTROLS]


[DWF]
;;Node           Constituent      Baseline   Patterns  
;;-------------- ---------------- ---------- ----------
MH143            FLOW             55         "MyPattern" "" ""
MH144            FLOW             0.300000   "" "" ""
MH145            FLOW             0.800000   "" "" ""
MH153            FLOW             4.200000   "" "" ""
MH154            FLOW             1.000000   "" "" ""
MH157            FLOW             0.700000   "" "" ""
MH158            FLOW             0.700000   "" "" ""
MH159            FLOW             0.100000   "" "" ""
MH164            FLOW             1.700000   "" "" ""
MH165            FLOW             0.400000   "" "" ""
MH167            FLOW             1.200000   "" "" ""
MH171            FLOW             3.900000   "" "" ""
MH182            FLOW             6.400000   "" "" ""
MH186            FLOW             39.100000  "" "" ""
MH187            FLOW             0.600000   "" "" ""
MH217            FLOW             11.600000  "" "" ""
MH218            FLOW             0.300000   "" "" ""
MH222            FLOW             2.400000   "" "" ""
MH224            FLOW             1.600000   "" "" ""
MH235            FLOW             4.800000   "" "" ""

[PATTERNS]
;;Name           Type       Multipliers
;;-------------- ---------- -----------
MyPattern        HOURLY     0.500 0.450 0.400 0.300 0.350 0.500
MyPattern                   1.400 1.600 1.500 1.400 1.300 1.150
MyPattern                   1.000 1.100 1.150 1.350 1.600 1.450
MyPattern                   0.850 0.950 1.100 1.000 0.840 0.660

[REPORT]
;;Reporting Options
INPUT      NO
CONTROLS   NO
SUBCATCHMENTS ALL
NODES ALL
LINKS ALL

[TAGS]

[MAP]
DIMENSIONS 352.847 -362.444 913.568 938.473
Units      None

[COORDINATES]
;;Node           X-Coord            Y-Coord           
;;-------------- ------------------ ------------------
MH143            378.334            874.076           
MH144            453.354            879.341           
MH145            456.655            812.936           
MH153            458.151            729.193           
MH154            460.394            642.460           
MH157            464.132            556.474           
MH158            464.880            467.497           
MH159            467.871            378.520           
MH164            471.609            301.506           
MH165            476.095            228.605           
MH167            480.582            145.610           
MH171            484.320            63.362            
MH182            488.059            -21.128           
MH186            491.050            -92.160           
MH187            494.788            -188.165          
MH217            500.022            -285.367          
MH218            586.008            -289.853          
MH222            663.022            -283.124          
MH224            746.017            -277.142          
MH235            820.040            -280.133          
OUTLET           888.081            -303.312          

[VERTICES]
;;Link           X-Coord            Y-Coord           
;;-------------- ------------------ ------------------

