[TITLE]
;;Project Title/Notes

[OPTIONS]
;;Option             Value
FLOW_UNITS           CFS
INFILTRATION         HORTON
FLOW_ROUTING         DYNWAVE
LINK_OFFSETS         DEPTH
MIN_SLOPE            0
ALLOW_PONDING        NO
SKIP_STEADY_STATE    NO

START_DATE           07/01/2003
START_TIME           00:00:00
REPORT_START_DATE    07/01/2003
REPORT_START_TIME    00:00:00
END_DATE             07/01/2003
END_TIME             02:00:00
SWEEP_START          01/01
SWEEP_END            12/31
DRY_DAYS             0
REPORT_STEP          00:01:00
WET_STEP             00:15:00
DRY_STEP             00:15:00
ROUTING_STEP         0:01:00 
RULE_STEP            00:00:00

INERTIAL_DAMPING     PARTIAL
NORMAL_FLOW_LIMITED  BOTH
FORCE_MAIN_EQUATION  H-W
VARIABLE_STEP        0.75
LENGTHENING_STEP     30
MIN_SURFAREA         8
MAX_TRIALS           8
HEAD_TOLERANCE       0.005
SYS_FLOW_TOL         5
LAT_FLOW_TOL         5
MINIMUM_STEP         0
THREADS              1

[EVAPORATION]
;;Data Source    Parameters
;;-------------- ----------------
CONSTANT         0.0
DRY_ONLY         NO

[RAINGAGES]
;;Name           Format    Interval SCF      Source    
;;-------------- --------- ------ ------ ----------
GAGE1            INTENSITY 0.25000  1.0      TIMESERIES RainSeries1     
GAGE2            INTENSITY 0.25000  1.0      TIMESERIES RainSeries2     

[SUBCATCHMENTS]
;;Name           Rain Gage        Outlet           Area     %Imperv  Width    %Slope   CurbLen  SnowPack        
;;-------------- ---------------- ---------------- -------- -------- -------- -------- -------- ----------------
LMDN008CC0001    GAGE1            45905014         1.44     21.0     108.74   7.85     0                        
LMDN008CC0002    GAGE1            45905018         1.52     26.36    95.39    0.94     0                        
LMDN008CC0003    GAGE1            45912002         1.54     33.19    139.48   6.0      0                        
LMDN008CC0004    GAGE1            47008008         1.88     33.04    142.51   1.0      0                        
LMDN008CC0005    GAGE1            47008007         1.53     23.95    117.27   1.0      0                        
LMDN008CC0006    GAGE1            45905009         0.72     26.9     77.53    0.97     0                        
LMDN008CC0007    GAGE1            45905010         1.01     21.0     87.55    4.52     0                        
LMDN008CC0008    GAGE1            45905011         1.94     21.0     228.91   0.69     0                        
LMDN008CC0009    GAGE1            45905008         0.32     21.0     29.53    0.44     0                        
LMDN008CC0010    GAGE1            45905017         1.91     21.0     75.86    7.89     0                        
LMDN008CC0011    GAGE1            47008003         2.31     21.0     175.56   1.0      0                        
LMDN008CC0012    GAGE1            47008004         1.86     28.38    143.38   1.0      0                        
LMDN008CC0013    GAGE1            47008006         2.12     42.45    333.36   1.0      0                        
LMDN008CC0014    GAGE1            47008012         1.88     32.8     151.06   2.75     0                        
LMDN008CC0015    GAGE1            47008002         1.56     23.57    103.23   0.47     0                        
LMDN008CC0016    GAGE1            45905006         0.97     27.56    82.07    0.53     0                        
LMDN008CC0017    GAGE1            47001016         1.71     24.69    113.88   5.43     0                        
LMDN008CC0018    GAGE1            45905003         0.53     25.92    78.28    0.54     0                        
LMDN008CC0019    GAGE1            45905004         1.04     30.08    114.52   0.43     0                        
LMDN008CC0020    GAGE1            47008001         0.87     28.38    47.75    0.49     0                        
LMDN008CC0021    GAGE1            45905002         1.95     28.7     166.46   0.47     0                        
LMDN008CC0022    GAGE1            47001006         1.03     28.87    79.82    3.28     0                        
LMDN008CC0023    GAGE1            45904012         1.39     24.69    81.32    1.26     0                        
LMDN008CC0024    GAGE1            47008010         3.03     29.43    157.75   0.9      0                        
LMDN008CC0025    GAGE1            47008011         1.36     29.43    120.8    2.8      0                        
LMDN008CC0026    GAGE1            47001020         1.73     23.68    100.9    0.45     0                        
LMDN008CC0027    GAGE1            47001015         1.06     25.21    74.57    4.86     0                        
LMDN008CC0028    GAGE1            47001019         3.09     26.9     352.35   0.44     0                        
LMDN008CC0029    GAGE1            47001017         1.85     27.56    109.57   0.59     0                        
LMDN008CC0030    GAGE1            47001018         0.86     28.38    155.82   0.34     0                        
LMDN008CC0031    GAGE1            47001014         1.88     28.38    93.8     0.56     0                        
LMDN008CC0032    GAGE1            47001013         1.5      26.36    277.98   0.55     0                        
LMDN008CC0033    GAGE1            47001012         1.29     24.69    134.89   1.0      0                        
LMDN008CC0034    GAGE1            47001005         0.71     31.73    50.14    3.65     0                        
LMDN008CC0035    GAGE1            47001003         0.39     30.83    73.54    0.69     0                        
LMDN008CC0036    GAGE1            47001004         1.64     27.21    144.17   5.44     0                        
LMDN008CC0037    GAGE1            47001007         0.85     25.54    103.4    5.08     0                        
LMDN008CC0038    GAGE1            47001011         0.54     21.0     59.78    1.0      0                        
LMDN008CC0039    GAGE1            47001008         0.93     26.9     65.9     0.44     0                        
LMDN008CC0040    GAGE1            47001009         1.36     25.21    165.75   0.37     0                        
LMDN008CC0041    GAGE1            46916009         0.35     42.5     190.73   0.69     0                        
LMDN008CC0042    GAGE1            45904003         0.46     30.83    45.32    3.22     0                        
LMDN008CC0043    GAGE1            46916014         2.17     24.47    137.13   11.07    0                        
LMDN008CC0044    GAGE1            47001001         2.38     28.38    93.91    0.6      0                        
LMDN008CC0045    GAGE1            46916019         5.04     30.9     174.55   2.35     0                        
LMDN008CC0046    GAGE1            46916016         2.23     24.0     230.58   1.06     0                        
LMDN008CC0047    GAGE1            46916015         2.16     26.4     178.66   3.52     0                        
LMDN008CC0048    GAGE1            46916003         1.55     27.75    141.95   0.57     0                        
LMDN008CC0049    GAGE1            46916004         1.26     41.21    105.48   0.98     0                        
LMDN008CC0050    GAGE1            46910028         8.89     49.41    136.83   4.98     0                        
LMDN008CC0051    GAGE1            46909001         1.91     21.0     115.08   6.17     0                        
LMDN008CC0052    GAGE1            46012002         2.09     21.0     174.57   7.57     0                        
LMDN008CC0053    GAGE1            46012001         0.8      21.0     75.27    4.96     0                        
LMDN008CC0054    GAGE1            46005006         0.4      21.0     63.75    1.07     0                        
LMDN008CC0055    GAGE1            46005009         0.43     21.0     321.22   3.22     0                        
LMDN008CC0056    GAGE1            46005007         1.24     21.0     790.13   2.13     0                        
LMDN008CC0057    GAGE1            46005008         0.4      21.0     26.0     1.54     0                        
LMDN008CC0058    GAGE1            46909005         1.27     21.0     621.3    8.17     0                        
LMDN008CC0059    GAGE1            46909006         1.16     21.0     127.5    4.13     0                        
LMDN008CC0060    GAGE1            46909007         1.56     21.0     144.66   3.5      0                        
LMDN008CC0061    GAGE1            46909012         1.1      21.0     119.97   10.82    0                        
LMDN008CC0062    GAGE1            46909011         1.49     21.0     147.87   8.49     0                        
LMDN008CC0063    GAGE1            46909008         0.9      27.75    370.1    3.44     0                        
LMDN008CC0064    GAGE1            46909003         0.77     21.0     67.41    2.39     0                        
LMDN008CC0065    GAGE1            46908016         2.12     21.0     141.29   1.05     0                        
LMDN008CC0066    GAGE1            46909009         0.52     30.0     48.34    0.48     0                        
LMDN008CC0067    GAGE1            46909010         0.94     25.5     61.3     2.0      0                        
LMDN008CC0068    GAGE1            46005005         0.71     23.25    47.96    4.35     0                        
LMDN008CC0069    GAGE1            46004002         1.12     34.11    103.18   1.0      0                        
LMDN008CC0070    GAGE1            46908001         1.0      21.0     49.79    0.88     0                        
LMDN008CC0071    GAGE1            46901020         0.48     21.0     51.14    1.0      0                        
LMDN008CC0072    GAGE1            46908005         0.35     21.0     112.32   1.0      0                        
LMDN008CC0073    GAGE1            46005004         1.37     27.23    95.03    6.3      0                        
LMDN008CC0074    GAGE1            46005003         2.23     22.13    189.02   0.83     0                        
LMDN008CC0075    GAGE1            46005002         1.45     21.0     106.36   0.83     0                        
LMDN008CC0076    GAGE1            46908004         1.35     21.0     114.17   3.0      0                        
LMDN008CC0077    GAGE1            46908017         1.35     21.0     104.09   1.19     0                        
LMDN008CC0078    GAGE1            46908006         1.02     30.83    96.0     0.8      0                        
LMDN008CC0079    GAGE1            46908007         3.32     22.13    161.55   0.96     0                        
LMDN008CC0080    GAGE1            46908019         1.41     21.0     95.13    1.04     0                        
LMDN008CC0081    GAGE1            46908020         1.18     22.42    83.69    9.43     0                        
LMDN008CC0082    GAGE1            46908011         1.59     26.9     123.85   2.99     0                        
LMDN008CC0083    GAGE1            46908009         1.06     21.0     29.29    1.0      0                        
LMDN008CC0084    GAGE1            46908010         1.17     21.0     513.45   1.0      0                        
LMDN008CC0085    GAGE1            46908014         1.29     21.0     117.58   3.64     0                        
LMDN008CC0086    GAGE1            46908015         1.33     23.84    117.67   2.99     0                        
LMDN008CC0087    GAGE1            46908012         2.19     25.21    118.85   3.01     0                        
LMDN008CC0088    GAGE1            46908021         1.24     21.0     98.61    7.11     0                        
LMDN008CC0089    GAGE1            46908022         1.5      22.69    142.84   12.96    0                        
LMDN008CC0090    GAGE1            46908023         1.02     27.75    99.63    12.06    0                        
LMDN008CC0091    GAGE1            46908025         0.66     24.0     84.6     1.12     0                        
LMDN008CC0092    GAGE1            46908024         0.98     25.5     107.51   1.05     0                        
LMDN008CC0093    GAGE1            46908027         1.63     34.23    105.8    1.26     0                        
LMDN008CC0094    GAGE1            46910007         2.67     51.85    153.28   2.59     0                        
LMDN008CC0095    GAGE1            46910004         4.55     43.4     1373.04  1.27     0                        
LMDN008CC0096    GAGE1            46910033         4.12     37.24    109.59   2.09     0                        
LMDN008CC0097    GAGE1            46910009         2.14     32.81    114.51   1.88     0                        
LMDN008CC0098    GAGE1            46910022         2.24     35.47    164.51   5.63     0                        
LMDN008CC0099    GAGE1            46907017         4.31     28.65    124.04   1.26     0                        
LMDN008CC0100    GAGE1            46907005         3.07     28.71    278.85   1.91     0                        
LMDN008CC0101    GAGE1            46907020         0.82     23.25    58.15    2.55     0                        
LMDN008CC0102    GAGE1            46901014         9.84     32.24    262.37   0.66     0                        
LMDN008CC0103    GAGE1            46901010         1.67     45.78    102.16   1.12     0                        
LMDN008CC0104    GAGE1            46901009         2.02     42.57    134.96   1.16     0                        
LMDN008CC0105    GAGE1            46902008         2.22     24.86    73.3     0.96     0                        
LMDN008CC0106    GAGE1            46902011         1.31     28.2     101.8    1.99     0                        
LMDN008CC0107    GAGE1            46902004         5.5      23.1     153.24   0.58     0                        
LMDN008CC0108    GAGE1            46815007         1.34     26.9     97.99    2.03     0                        
LMDN008CC0109    GAGE1            46903003         6.58     24.44    162.39   0.56     0                        
LMDN008CC0110    GAGE1            46814003         6.75     23.57    161.38   0.77     0                        
LMDN008CC0111    GAGE1            46907022         10.31    33.64    199.21   2.29     0                        
LMDN008CC0112    GAGE1            46902026         3.3      27.56    212.06   1.56     0                        
LMDN008CC0113    GAGE1            46902024         2.66     32.8     79.94    0.9      0                        
LMDN008CC0114    GAGE1            46902022         1.51     22.93    112.88   0.64     0                        
LMDN008CC0115    GAGE1            46903007         10.87    24.25    205.83   2.15     0                        
LMDN008CC0116    GAGE1            46910026         9.59     38.37    185.98   1.26     0                        
LMDN008CC0117    GAGE1            46911035         6.06     41.37    138.97   1.41     0                        
LMDN008CC0118    GAGE1            46911017         5.81     26.79    230.73   2.28     0                        
LMDN008CC0119    GAGE1            46911016         1.25     40.67    76.65    1.89     0                        
LMDN008CC0120    GAGE1            46911029         6.48     34.44    148.91   2.22     0                        
LMDN008CC0121    GAGE1            46906008         9.05     31.43    153.28   1.68     0                        
LMDN008CC0122    GAGE1            46906010         8.11     43.07    184.87   0.66     0                        
LMDN008CC0123    GAGE1            46911005         10.4     41.29    149.29   2.11     0                        
LMDN008CC0124    GAGE1            46913001         2.66     46.22    146.15   0.43     0                        
LMDN008CC0125    GAGE1            46913004         1.2      35.75    115.53   4.47     0                        
LMDN008CC0126    GAGE1            46911028         9.64     24.9     164.12   4.24     0                        
LMDN008CC0127    GAGE1            46911013         3.25     43.6     158.5    2.26     0                        
LMDN008CC0128    GAGE1            46911011         1.55     21.0     160.66   0.52     0                        
LMDN008CC0129    GAGE1            46911037         0.93     49.67    494.86   1.0      0                        
LMDN008CC0130    GAGE1            46911012         0.76     49.25    68.65    3.37     0                        
LMDN008CC0131    GAGE1            46912002         2.55     27.75    271.86   0.79     0                        
LMDN008CC0132    GAGE1            46905011         4.19     36.88    94.53    3.04     0                        
LMDN008CC0133    GAGE1            46905002         1.97     27.21    128.77   2.52     0                        
LMDN008CC0134    GAGE1            46905006         4.74     27.93    150.17   0.98     0                        
LMDN008CC0135    GAGE1            46905003         2.16     27.14    70.27    2.86     0                        
LMDN008CC0136    GAGE1            46904011         0.87     35.75    46.91    3.53     0                        
LMDN008CC0137    GAGE1            46904010         5.15     21.0     109.67   2.25     0                        
LMDN008CC0138    GAGE1            46814010         16.54    26.29    221.61   0.78     0                        
LMDN008CC0139    GAGE1            46810018         4.89     26.36    169.01   0.63     0                        
LMDN008CC0140    GAGE1            46810016         2.87     25.78    164.51   0.41     0                        
LMDN008CC0141    GAGE1            46815012         7.25     22.59    161.7    1.15     0                        
LMDN008CC0142    GAGE1            46814001         4.69     28.38    136.11   1.01     0                        
LMDN008CC0143    GAGE1            46811002         2.82     32.8     139.82   1.07     0                        
LMDN008CC0144    GAGE1            46806019         10.76    36.31    216.87   0.55     0                        
LMDN008CC0145    GAGE1            46811005         3.35     34.24    155.9    0.61     0                        
LMDN008CC0146    GAGE1            46811006         4.01     25.53    283.36   1.19     0                        
LMDN008CC0147    GAGE1            46811007         2.13     26.13    95.8     1.05     0                        
LMDN008CC0148    GAGE1            46811008         1.81     23.95    99.44    1.22     0                        
LMDN008CC0149    GAGE1            46814008         1.99     30.1     189.51   0.74     0                        
LMDN008CC0150    GAGE1            46806022         1.71     34.11    201.49   0.35     0                        
LMDN008CC0151    GAGE1            46806020         1.76     40.2     135.32   0.79     0                        
LMDN008CC0152    GAGE1            46806021         1.16     27.56    184.18   0.39     0                        
LMDN008CC0153    GAGE1            46811010         1.66     28.38    122.37   0.35     0                        
LMDN008CC0154    GAGE1            46811011         2.22     21.0     137.22   0.36     0                        
LMDN008CC0155    GAGE1            46811012         1.46     21.0     109.4    0.36     0                        
LMDN008CC0156    GAGE1            46805008         14.27    38.41    203.07   2.61     0                        
LMDN008CC0157    GAGE1            46806014         2.44     21.0     136.28   0.36     0                        
LMDN008CC0158    GAGE1            46806013         1.61     21.0     335.19   5.57     0                        
LMDN008CC0159    GAGE1            46805002         1.48     21.0     82.98    1.09     0                        
LMDN008CC0160    GAGE1            46805001         2.79     21.0     119.27   0.73     0                        
LMDN008CC0161    GAGE1            46805004         1.67     24.28    88.44    0.83     0                        
LMDN008CC0162    GAGE1            46805003         1.44     21.0     91.75    0.58     0                        
LMDN008CC0163    GAGE1            46804007         1.18     21.0     63.91    2.39     0                        
LMDN008CC0164    GAGE1            46804008         2.88     21.0     146.05   0.87     0                        
LMDN008CC0165    GAGE1            46804006         1.44     21.0     90.24    0.63     0                        
LMDN008CC0166    GAGE1            46804001         0.9      21.0     138.27   1.21     0                        
LMDN008CC0167    GAGE1            46804002         1.2      21.0     116.63   0.8      0                        
LMDN008CC0168    GAGE1            46804004         2.44     21.0     105.24   0.97     0                        
LMDN008CC0169    GAGE1            46804003         1.34     21.0     75.51    0.8      0                        
LMDN008CC0170    GAGE1            46804009         0.56     21.0     36.82    10.96    0                        
LMDN008CC0171    GAGE1            46804010         1.4      21.0     117.93   8.23     0                        
LMDN008CC0172    GAGE1            46804012         2.22     21.0     142.85   0.82     0                        
LMDN008CC0173    GAGE1            46804011         1.13     21.0     128.06   0.89     0                        
LMDN008CC0174    GAGE1            46804013         1.52     21.0     157.72   8.11     0                        
LMDN008CC0175    GAGE1            46804014         2.07     21.0     84.35    2.72     0                        
LMDN008CC0176    GAGE1            46805005         2.61     26.36    211.42   9.93     0                        
LMDN008CC0177    GAGE1            46804015         1.93     21.0     140.38   3.22     0                        
LMDN008CC0178    GAGE1            46713016         1.08     21.0     239.31   1.78     0                        
LMDN008CC0179    GAGE1            46713002         1.1      21.0     100.79   1.88     0                        
LMDN008CC0180    GAGE1            46713003         2.56     21.0     136.54   6.1      0                        
LMDN008CC0181    GAGE1            46713010         0.61     21.0     95.46    0.98     0                        
LMDN008CC0182    GAGE1            46713007         1.57     21.0     89.73    4.35     0                        
LMDN008CC0183    GAGE1            46713009         2.25     21.0     176.65   0.98     0                        
LMDN008CC0184    GAGE1            46713008         1.65     21.0     143.74   2.97     0                        
LMDN008CC0185    GAGE1            46713005         2.55     21.0     212.76   6.84     0                        
LMDN008CC0186    GAGE1            46713006         1.05     21.0     162.03   3.86     0                        
LMDN008CC0187    GAGE1            46804005         1.46     21.0     81.22    1.26     0                        
LMDN008CC0188    GAGE1            46713014         3.96     24.0     208.67   1.0      0                        
LMDN008CC0189    GAGE1            46713015         3.43     21.0     171.15   0.6      0                        
LMDN008CC0190    GAGE1            46804023         1.97     22.8     164.59   3.69     0                        
LMDN008CC0191    GAGE1            46804019         0.33     21.0     76.66    13.46    0                        
LMDN008CC0192    GAGE1            51001001         0.94     21.0     93.93    2.39     0                        
LMDN008CC0193    GAGE1            46804018         1.36     21.0     127.99   0.59     0                        
LMDN008CC0194    GAGE1            46804021         0.86     21.0     333.06   5.64     0                        
LMDN008CC0195    GAGE1            46804022         0.66     21.0     98.2     9.25     0                        
LMDN008CC0196    GAGE1            46805007         1.92     27.56    154.15   5.45     0                        
LMDN008CC0197    GAGE1            46805006         2.95     21.0     212.95   5.5      0                        
LMDN008CC0198    GAGE1            46804024         2.21     24.38    123.19   9.53     0                        
LMDN008CC0199    GAGE1            51008025         1.01     44.07    204.78   9.2      0                        
LMDN008CC0200    GAGE1            51008024         1.21     39.18    120.44   9.34     0                        
LMDN008CC0201    GAGE1            51008002         0.76     16.9     56.21    2.41     0                        
LMDN008CC0202    GAGE1            51008001         1.25     41.5     93.78    2.33     0                        
LMDN008CC0203    GAGE1            51001010         1.63     21.0     99.38    1.0      0                        
LMDN008CC0204    GAGE1            51008006         0.83     43.13    365.31   0.46     0                        
LMDN008CC0205    GAGE1            51008005         2.44     25.21    172.4    0.47     0                        
LMDN008CC0206    GAGE1            51002002         1.8      21.0     159.25   1.37     0                        
LMDN008CC0207    GAGE1            51002001         3.18     21.0     184.7    0.52     0                        
LMDN008CC0208    GAGE1            51001007         3.22     21.0     629.85   0.94     0                        
LMDN008CC0209    GAGE1            51001005         4.16     21.0     74.62    1.0      0                        
LMDN008CC0210    GAGE1            51001002         4.74     23.68    237.8    3.91     0                        
LMDN008CC0211    GAGE1            51001003         5.09     21.0     266.28   1.0      0                        
LMDN008CC0212    GAGE1            51008009         1.93     26.13    132.38   1.0      0                        
LMDN008CC0213    GAGE1            51008008         2.23     24.47    129.2    1.0      0                        
LMDN008CC0214    GAGE1            51001012         2.52     24.11    158.65   1.0      0                        
LMDN008CC0215    GAGE1            51002003         3.01     21.0     162.39   2.78     0                        
LMDN008CC0216    GAGE1            51007001         2.57     21.0     172.79   1.39     0                        
LMDN008CC0217    GAGE1            51007002         0.96     21.0     92.89    1.63     0                        
LMDN008CC0218    GAGE1            51007003         2.94     32.15    1037.02  0.75     0                        
LMDN008CC0219    GAGE1            51007007         1.33     50.5     227.22   1.23     0                        
LMDN008CC0220    GAGE1            51007006         2.45     27.56    204.06   0.55     0                        
LMDN008CC0221    GAGE1            51009016         0.3      29.43    34.44    1.37     0                        
LMDN008CC0222    GAGE1            51010010         2.23     30.83    143.12   1.99     0                        
LMDN008CC0223    GAGE1            51009015         2.2      28.38    144.33   1.33     0                        
LMDN008CC0224    GAGE1            51007005         2.14     27.56    118.73   0.81     0                        
LMDN008CC0225    GAGE1            51008011         1.42     42.45    109.18   3.22     0                        
LMDN008CC0226    GAGE1            51008007         0.21     50.5     35.89    1.93     0                        
LMDN008CC0227    GAGE1            51008012         1.32     25.92    98.43    1.96     0                        
LMDN008CC0228    GAGE1            51008023         1.29     25.92    126.65   3.45     0                        
LMDN008CC0229    GAGE1            51007018         0.97     28.17    91.61    0.95     0                        
LMDN008CC0230    GAGE1            51007004         0.66     30.56    73.04    1.06     0                        
LMDN008CC0231    GAGE1            51008014         1.41     25.54    93.59    3.43     0                        
LMDN008CC0232    GAGE1            51008022         0.43     32.8     42.88    1.13     0                        
LMDN008CC0233    GAGE1            51008016         2.77     32.24    346.42   0.87     0                        
LMDN008CC0234    GAGE1            51008017         0.84     27.56    71.65    2.69     0                        
LMDN008CC0235    GAGE1            51009012         0.87     25.92    74.93    1.96     0                        
LMDN008CC0236    GAGE1            51009014         1.61     29.43    189.31   0.69     0                        
LMDN008CC0237    GAGE1            51009013         1.61     24.69    109.41   1.55     0                        
LMDN008CC0238    GAGE1            51009017         1.36     31.73    166.47   0.72     0                        
LMDN008CC0239    GAGE1            51009018         1.3      37.09    127.57   0.48     0                        
LMDN008CC0240    GAGE1            51009019         1.6      42.07    164.96   0.54     0                        
LMDN008CC0241    GAGE1            51016009         2.03     27.94    122.84   0.67     0                        
LMDN008CC0242    GAGE1            51016008         1.64     35.75    105.87   0.59     0                        
LMDN008CC0243    GAGE1            51009011         1.59     24.93    174.47   1.0      0                        
LMDN008CC0244    GAGE1            51009007         2.36     26.36    117.19   1.0      0                        
LMDN008CC0245    GAGE1            51009010         2.11     27.94    149.53   1.0      0                        
LMDN008CC0246    GAGE1            51009008         1.63     26.62    101.92   1.0      0                        
LMDN008CC0247    GAGE1            51009009         1.44     23.46    91.34    1.0      0                        
LMDN008CC0248    GAGE1            51008019         0.64     21.0     45.39    0.6      0                        
LMDN008CC0249    GAGE1            51008018         1.07     29.43    76.81    1.0      0                        
LMDN008CC0250    GAGE1            51008020         1.16     21.0     78.44    0.6      0                        
LMDN008CC0251    GAGE1            51009005         0.47     21.0     84.55    2.5      0                        