[TITLE]
;;Project Title/Notes

[OPTIONS]
;;Option             Value
FLOW_UNITS           CMS
INFILTRATION         HORTON
FLOW_ROUTING         DYNWAVE
LINK_OFFSETS         DEPTH
MIN_SLOPE            0
ALLOW_PONDING        NO
SKIP_STEADY_STATE    NO

START_DATE           08/19/2012
START_TIME           00:00:00
REPORT_START_DATE    08/19/2013
REPORT_START_TIME    00:00:00
END_DATE             08/20/2013
END_TIME             12:00:00
SWEEP_START          01/01
SWEEP_END            12/31
DRY_DAYS             0
REPORT_STEP          00:15:00
WET_STEP             00:15:00
DRY_STEP             00:15:00
ROUTING_STEP         0:00:10 

INERTIAL_DAMPING     NONE
NORMAL_FLOW_LIMITED  BOTH
FORCE_MAIN_EQUATION  H-W
VARIABLE_STEP        0.75
LENGTHENING_STEP     5
MIN_SURFAREA         1.14
MAX_TRIALS           8
HEAD_TOLERANCE       0.0015
SYS_FLOW_TOL         5
LAT_FLOW_TOL         5
MINIMUM_STEP         0
THREADS              1

[EVAPORATION]
;;Data Source    Parameters
;;-------------- ----------------
CONSTANT         0.0
DRY_ONLY         NO

[RAINGAGES]
;;Name           Format    Interval SCF      Source    
;;-------------- --------- ------ ------ ----------
Gage1            INTENSITY 1:00     1.0      TIMESERIES TS1             

[SUBCATCHMENTS]
;;Name           Rain Gage        Outlet           Area     %Imperv  Width    %Slope   CurbLen  SnowPack        
;;-------------- ---------------- ---------------- -------- -------- -------- -------- -------- ----------------
S1               Gage1            J1               328.68   5        472.40   2.0      0                        
S2               Gage1            J2               716.78   4        712.47   3.4      0                        
S3               Gage1            J3               341.49   5        251.85   3.4      0                        
S4               Gage1            J3               470.61   5        316.26   3.8      0                        
S5               Gage1            J4               568.1    5        293.50   3.0      0                        
S6               Gage1            J5               317.61   5.0      249.32   2.6      0                        
S7               Gage1            J5               140.42   5        135.16   3.1      0                        
S8               Gage1            J6               181.23   6        173.76   5.1      0                        
S9               Gage1            J6               83.21    5        49.87    2.0      0                        
S10              Gage1            J7               150.53   7        161.06   5.1      0                        
S11              Gage1            J7               224.57   5        121.83   2.0      0                        
S12              Gage1            J20              493.98   12.65    396.39   2.0      0                        
S13              Gage1            J8               214.98   5        215.20   5.5      0                        
S14              Gage1            J9               375.69   10.1     294.81   2.0      0                        
S15              Gage1            J10              166.76   13.33    126.98   3.0      0                        
S16              Gage1            J11              167.19   28.23    114.04   1.1      0                        
S17              Gage1            J12              268.82   64       228.78   0.5      0                        
S18              Gage1            J13              347.84   69       307.12   3.5      0                        
S19              Gage1            J14              705.38   31.45    180.59   0.5      0                        
S20              Gage1            J14              511.25   28.95    252.84   0.45     0                        
S21              Gage1            J15              389.02   84.82    145.38   0.35     0                        
S22              Gage1            J16              726.33   33.02    663.99   1.1      0                        
S23              Gage1            J17              261.65   33.24    143.73   0.8      0                        
S24              Gage1            J18              209.32   51       1599.88  0.8      0                        
S25              Gage1            J19              1030.53  86.39    301.57   0.55     0                        
S26              Gage1            J21              223.3    21       205.74   4.9      0                        
S27              Gage1            J22              544.04   33.06    36.21    0.9      0                        
S28              Gage1            J23              364.62   42.34    188.70   0.9      0                        
S29              Gage1            J24              399.53   93.69    293.83   0.5      0                        
S30              Gage1            J24              940.74   44.38    698.19   1.2      0                        
S31              Gage1            J19              746.59   94.07    179.40   0.7      0                        
S32              Gage1            J26              418.6    76.22    124.26   0.3      0                        
S33              Gage1            J25              525.70   51.09    409.17   0.9      0                        
S34              Gage1            J26              721.93   97.1     148.78   0.3      0                        
S35              Gage1            J28              185.5    9.5      223.70   0.5      0                        
S36              Gage1            J29              605.99   32.36    471.29   1.1      0                        
S37              Gage1            J30              408.48   26.35    338.68   0.9      0                        
S38              Gage1            J31              449.17   49.36    447.24   0.9      0                        
S39              Gage1            J32              541.05   78.12    409.47   0.7      0                        
S40              Gage1            J33              523.8    25       234.56   0.55     0                        
S41              Gage1            J34              323.8    60.22    268.86   0.50     0                        
S42              Gage1            J35              896.65   68.39    404.30   0.3      0                        

[SUBAREAS]
;;Subcatchment   N-Imperv   N-Perv     S-Imperv   S-Perv     PctZero    RouteTo    PctRouted 
;;-------------- ---------- ---------- ---------- ---------- ---------- ---------- ----------
S1               0.045      0.045      0.1        0.1        0          OUTLET    
S2               0.045      0.045      0.0018     0.05       0          OUTLET    
S3               0.045      0.045      0.1        0.1        0          OUTLET    
S4               0.045      0.045      0.1        0.1        0          OUTLET    
S5               0.045      0.045      0.1        0.1        0          OUTLET    
S6               0.045      0.045      0.1        0.1        0          OUTLET    
S7               0.045      0.045      0.1        0.1        0          OUTLET    
S8               0.045      0.045      0.1        0.1        0          OUTLET    
S9               0.045      0.045      0.1        0.05       0          OUTLET    
S10              0.045      0.045      0.1        0.1        0          OUTLET    
S11              0.045      0.045      0.1        0.1        0          OUTLET    
S12              0.045      0.045      0.1        0.1        8.32       OUTLET    
S13              0.045      0.045      0.1        0.1        0          OUTLET    
S14              0.045      0.045      0.1        0.1        25         OUTLET    
S15              0.045      0.045      0.1        0.1        0          OUTLET    
S16              0.045      0.045      0.1        0.1        0          OUTLET    
S17              0.045      0.045      0.1        0.1        0          OUTLET    
S18              0.045      0.045      0.1        0.1        0          OUTLET    
S19              0.045      0.045      0.1        0.1        0          OUTLET    
S20              0.045      0.045      0.1        0.1        0          OUTLET    
S21              0.045      0.045      0.1        0.1        0          OUTLET    
S22              0.045      0.045      0.1        0.1        0          OUTLET    
S23              0.045      0.045      20         0.1        0          OUTLET    
S24              0.045      0.045      50         1.875      0          OUTLET    
S25              0.045      0.045      0.1        0.1        0          OUTLET    
S26              0.045      0.045      0.1        0.1        0          OUTLET    
S27              0.045      0.045      0.1        0.1        0          OUTLET    
S28              0.045      0.045      0.1        0.1        0          OUTLET    
S29              0.045      0.045      0.1        0.1        0          OUTLET    
S30              0.045      0.045      0.1        0.1        0          OUTLET    
S31              0.045      0.045      0.1        0.1        0          OUTLET    
S32              0.045      0.045      0.1        0.1        0          OUTLET    
S33              0.045      0.045      0.1        0.1        0          OUTLET    
S34              0.045      0.045      0.1        0.1        0          OUTLET    
S35              0.045      0.045      0.1        0.1        0          OUTLET    
S36              0.045      0.045      35         1.875      0          OUTLET    
S37              0.045      0.045      0.5        0.1        25         OUTLET    
S38              0.045      0.045      60         0.1        0          OUTLET    
S39              0.045      0.045      0.1        0.1        25         OUTLET    
S40              0.045      0.045      0.1        0.1        0          OUTLET    
S41              0.045      0.045      0.1        0.1        0          OUTLET    
S42              .045       .045       0.1        0.1        80         OUTLET    

[INFILTRATION]
;;Subcatchment   MaxRate    MinRate    Decay      DryTime    MaxInfil  
;;-------------- ---------- ---------- ---------- ---------- ----------
S1               33.8       1.16       0.117      10         0         
S2               33.8       1.16       0.117      10         0         
S3               33.8       1.16       0.117      10         0         
S4               33.8       1.16       0.117      10         0         
S5               33.8       1.16       0.117      10         0         
S6               33.8       1.16       0.117      10         0         
S7               33.8       1.16       0.117      10         0         
S8               33.8       1.16       0.117      10         0         
S9               33.8       1.16       0.117      10         0         
S10              33.8       1.16       0.117      10         0         
S11              33.8       1.16       0.117      10         0         
S12              33.8       1.16       0.117      10         0         
S13              33.8       1.16       0.117      10         0         
S14              33.8       1.16       0.117      10         0         
S15              33.8       1.16       0.117      10         0         
S16              33.8       1.16       0.117      10         0         
S17              33.8       1.16       0.117      10         0         
S18              33.8       1.16       0.117      10         0         
S19              33.8       1.16       0.117      10         0         
S20              33.8       1.16       0.117      10         0         
S21              33.8       1.16       0.117      10         0         
S22              33.8       1.16       0.117      10         0         
S23              33.8       1.16       0.117      10         0         
S24              33.8       1.16       0.117      10         0         
S25              33.8       1.16       0.117      10         0         
S26              33.8       1.16       0.117      10         0         
S27              33.8       1.16       0.117      10         0         
S28              33.8       1.16       0.117      10         0         
S29              33.8       1.16       0.117      10         0         
S30              33.8       1.16       0.117      10         0         
S31              33.8       1.16       0.117      10         0         
S32              33.8       1.16       0.117      10         0         
S33              33.8       1.16       0.117      10         0         
S34              33.8       1.16       0.117      10         0         
S35              33.8       1.16       0.117      10         0         
S36              33.8       1.16       0.117      10         0         
S37              33.8       1.16       0.117      10         0         
S38              33.8       1.16       0.117      10         0         
S39              33.8       1.16       0.117      10         0         
S40              33.8       1.16       0.117      10         0         
S41              33.8       1.16       0.117      10         0         
S42              33.8       1.16       0.117      10         0         

[JUNCTIONS]
;;Name           Elevation  MaxDepth   InitDepth  SurDepth   Aponded   
;;-------------- ---------- ---------- ---------- ---------- ----------
J1               579.6      3          0          0          100       
J2               575        3.02       0          0          100       
J3               568        3.25       0          0          100       
J4               579        2          0          0          100       
J5               578        2.4        0          0          100       
J6               572        2.8        0          0          100       
J7               568        2.8        0          0          100       
J8               586.8      2.5        0          0          100       
J9               574.2      2.8        0          0          100       
J10              585.9      2.5        0          0          100       
J11              576.3      2.8        0          0          100       
J12              567        3          0          0          100       
J13              565.6      2.8        0          0          100       
J14              556.3      3.5        0          0          100       
J15              544.6      4          0          0          100       
J16              562.6      2.9        0          0          100       
J17              560.1      3          0          0          100       
J18              558.8      0          0          0          100       
J19              538.2      4.5        0          0          100       
J20              564        2.5        0          0          100       
J21              564        2.5        0          0          100       
J22              560.8      2.8        0          0          100       
J23              555        2.9        0          0          100       
J24              550        3.0        0          0          100       
J25              531.3      2.8        0          0          100       
J26              529.2      3.5        0          0          100       
J28              573.3      2.5        0          0          100       
J29              560.1      2.8        0          0          100       
J30              552        0          0          0          100       
J31              549.9      3          0          0          100       
J32              543.9      3.2        0          0          100       
J33              537.5      3.5        0          0          100       
J34              534.2      3.5        0          0          100       
J35              527.5      3.5        0          0          100       
J27              527.1      4.50       0          0          100       
J36              526.3      5          0          0          100       

[OUTFALLS]
;;Name           Elevation  Type       Stage Data       Gated    Route To        
;;-------------- ---------- ---------- ---------------- -------- ----------------
OUT1             524.6      FREE                        NO                       

[CONDUITS]
;;Name           From Node        To Node          Length     Roughness  InOffset   OutOffset  InitFlow   MaxFlow   
;;-------------- ---------------- ---------------- ---------- ---------- ---------- ---------- ---------- ----------
C1               J1               J2               1269.30    0.04       579.6      570.0      0          10        
C2               J2               J3               1803.63    0.04       571        565        0          20        
C3               J5               J6               1218.73    0.04       578        572        0          20        
C4               J4               J6               1668.65    0.04       579        572        0          20        
C5               J6               J7               891.08     0.04       571        568        0          40        
C6               J7               J20              1537.15    0.04       568        564        0          50        
C7               J8               J9               2102.75    0.04       586.8      574.2      0          10        
C8               J10              J11              1466.06    0.04       585.9      576.3      0          10        
C9               J9               J12              1563.35    0.04       573.6      565.5      0          20        
C10              J11              J12              1320.55    0.04       576        567        0          35        
C11              J12              J14              3906.05    0.04       567        554        0          50        
C12              J13              J14              2945.37    .04        555.6      546.3      0          70        
C13              J14              J15              2675.86    0.04       565.2      564.6      0          80        
C14              J3               J16              1623.51    0.04       564.9      552.9      0          30        
C15              J16              J17              1499.97    0.04       552.9      552.3      0          60        
C16              J17              J18              1366.55    0.04       557        538        0          800       
C18              J15              J19              4845.3     0.04       576        560        0          1100      
C19              J21              J22              2002.23    0.04       564        556        0          600       
C20              J20              J23              2932.18    0.04       556        550        0          770       
C21              J22              J23              932.48     0.04       555        550        0          750       
C22              J23              J24              1721.09    0.04       550        537        0          900       
C23              J24              J19              4161.57    .04        537        530        0          1000      
C24              J19              J26              3368.72    .04        546.9      533.4      0          1190      
C25              J25              J26              4852.35    .04        531.3      529.2      0          750       
C26              J26              J27              690.575    .04        529        528.9      0          1500      
C27              J27              J36              608        0.04       528.9      527.7      0          1260      
C28              J36              OUT1             161        0.04       527        526.8      0          1260      
C29              J28              J29              2035.81    0.04       573.3      560.1      0          30        
C30              J29              J30              1333.85    0.04       560.1      552        0          70        
C31              J30              J31              1907.40    0.04       552        549.9      0          130       
C32              J31              J32              1602.54    0.04       550.5      543.9      0          220       
C33              J32              J33              769.32     0.04       539.4      537.9      0          400       
C34              J33              J34              348.54     0.04       541.5      540.9      0          490       
C35              J34              J35              3922.33    0.04       541.2      532.8      0          670       
C36              J35              J36              800.5      0.04       527.7      526        0          730       
C17              J18              J15              3565       0.04       0          0          0          900       

[XSECTIONS]
;;Link           Shape        Geom1            Geom2      Geom3      Geom4      Barrels    Culvert   
;;-------------- ------------ ---------------- ---------- ---------- ---------- ---------- ----------
C1               IRREGULAR    C1               0          0          0          1                    
C2               IRREGULAR    C2               0          0          0          1                    
C3               IRREGULAR    C3               0          0          0          1                    
C4               IRREGULAR    C4               0          0          0          1                    
C5               IRREGULAR    C5               0          0          0          1                    
C6               IRREGULAR    C6               0          0          0          1                    
C7               IRREGULAR    C7               0          0          0          1                    
C8               IRREGULAR    C8               0          0          0          1                    
C9               IRREGULAR    C9               0          0          0          1                    
C10              IRREGULAR    C10              0          0          0          1                    
C11              IRREGULAR    C11              0          0          0          1                    
C12              IRREGULAR    C12              0          0          0          1                    
C13              IRREGULAR    C13              0          0          0          1                    
C14              IRREGULAR    C14              0          0          0          1                    
C15              IRREGULAR    C15              0          0          0          1                    
C16              IRREGULAR    C16              0          0          0          1                    
C18              IRREGULAR    C18              0          0          0          1                    
C19              IRREGULAR    C19              0          0          0          1                    
C20              IRREGULAR    C20              0          0          0          1                    
C21              IRREGULAR    C21              0          0          0          1                    
C22              IRREGULAR    C22              0          0          0          1                    
C23              IRREGULAR    C23              0          0          0          1                    
C24              IRREGULAR    C24              0          0          0          1                    
C25              IRREGULAR    C25              0          0          0          1                    
C26              IRREGULAR    C26              0          0          0          1                    
C27              IRREGULAR    C27              0          0          0          1                    
C28              IRREGULAR    C28              0          0          0          1                    
C29              IRREGULAR    C29              0          0          0          1                    
C30              IRREGULAR    C30              0          0          0          1                    
C31              IRREGULAR    C31              0          0          0          1                    
C32              IRREGULAR    C32              0          0          0          1                    
C33              IRREGULAR    C33              0          0          0          1                    
C34              IRREGULAR    C34              0          0          0          1                    
C35              IRREGULAR    C35              0          0          0          1                    
C36              IRREGULAR    C36              0          0          0          1                    
C17              IRREGULAR    C17              0          0          0          1                    

[TRANSECTS]
;;Transect Data in HEC-2 format
;
NC 0.045    0.045    0.030   
X1 C1                5        -50      50       0.0      0.0      0.0      0.0      0.0     
GR 579.6    -50      574.8    -25      575.1    0        576.4    25       579.1    50      
;
NC 0.045    0.045    0.030   
X1 C2                5        -50      50       0.0      0.0      0.0      0.0      0.0     
GR 575      -50      570      -25      568      0        568.5    25       574.6    50      
;
NC 0.045    0.045    0.03    
X1 C3                5        -50      50       0.0      0.0      0.0      0.0      0.0     
GR 578.0    -50      575.0    -25      572.0    0        573.0    25       577.5    50      
;
NC 0.045    0.045    0.03    
X1 C4                5        -50      50       0.0      0.0      0.0      0.0      0.0     
GR 579.0    -50      577.5    -25      572      0        573.1    25       579.2    50      
;
NC 0.045    0.045    0.030   
X1 C5                5        -50      50       0.0      0.0      0.0      0.0      0.0     
GR 572.0    -50      569.5    -25      568.0    0        568.5    25       571.6    50      
;
NC 0.045    0.045    0.03    
X1 C6                5        -50      50       0.0      0.0      0.0      0.0      0.0     
GR 568      -50      563      -25      564      0        564.5    25       567.5    50      
;
NC 0.045    0.045    0.03    
X1 C7                5        -50      50       0.0      0.0      0.0      0.0      0.0     
GR 586.8    -50      580.6    -25      574.4    0        577      25       586.1    50      
;
NC 0.045    0.045    0.03    
X1 C8                5        -50      50       0.0      0.0      0.0      0.0      0.0     
GR 585.9    -50      580.2    -25      576.3    0        577.3    25       586      50      
;
NC 0.045    0.045    0.03    
X1 C9                5        -50      50       0.0      0.0      0.0      0.0      0.0     
GR 574.2    -50      569.5    -25      567.0    0        568.4    25       573.6    50      
;
NC 0.045    0.045    0.030   
X1 C10               5        -50      50       0.0      0.0      0.0      0.0      0.0     
GR 576.3    -50      570.2    -25      567      0        568.0    25       575.5    50      
;
NC 0.045    0.045    0.030   
X1 C11               5        -50      50       0.0      0.0      0.0      0.0      0.0     
GR 567.0    -50      556.3    -25      558.1    0        562.1    25       566.7    50      
;
NC 0.045    0.045    0.030   
X1 C12               5        -50      50       0.0      0.0      0.0      0.0      0.0     
GR 567      -50      563.7    -25      556.3    0        560.0    25       566.7    50      
;
NC 0.045    0.045    0.030   
X1 C13               5        -50      50       0.0      0.0      0.0      0.0      0.0     
GR 556.3    -50      550.9    -25      544.6    0        547.6    25       555.4    50      
;
NC 0.045    0.045    0.030   
X1 C14               5        -50      50       0.0      0.0      0.0      0.0      0.0     
GR 568      -50      565.1    -25      562.6    0        562.4    25       568.4    50      
;
NC 0.045    0.045    0.030   
X1 C15               5        -50      50       0.0      0.0      0.0      0.0      0.0     
GR 562.6    -50      561.0    -25      560.1    0        561.0    25       562.0    50      
;
NC 0.045    0.045    0.030   
X1 C16               5        -50      50       0.0      0.0      0.0      0.0      0.0     
GR 560.1    -50      558.8    -25      557.7    0        558.5    25       560.2    50      
;
NC 0.045    0.045    0.030   
X1 C17               5        -50      50       0.0      0.0      0.0      0.0      0.0     
GR 558.8    -50      553.1    -25      544.6    0        545.4    25       557.5    50      
;
NC 0.045    0.045    0.03    
X1 C18               5        -50      50       0.0      0.0      0.0      0.0      0.0     
GR 544.6    -50      543.5    -25      538.2    0        537.1    25       544.1    50      
;
NC 0.045    0.045    0.030   
X1 C19               5        -50      50       0.0      0.0      0.0      0.0      0.0     
GR 564.0    -50      562.4    -25      560.8    0        561.3    25       563.7    50      
;
NC 0.045    0.045    0.030   
X1 C20               5        -50      50       0.0      0.0      0.0      0.0      0.0     
GR 564.0    -50      561.0    -25      555.0    0        557      25       563.4    50      
;
NC 0.045    0.045    0.030   
X1 C21               5        -50      50       0.0      0.0      0.0      0.0      0.0     
GR 560.8    -50      554.0    -25      555.0    0        556.4    25       560.4    50      
;
NC 0.045    0.045    0.030   
X1 C22               5        -50      50       0.0      0.0      0.0      0.0      0.0     
GR 555.0    -50      548.7    -25      550.0    0        550.2    25       554.6    50      
;
NC 0.045    0.045    0.030   
X1 C23               5        -50      50       0.0      0.0      0.0      0.0      0.0     
GR 550      -50      544.0    -25      538.2    0        545.2    25       549.6    50      
;
NC 0.045    0.045    0.030   
X1 C24               5        -50      50       0.0      0.0      0.0      0.0      0.0     
GR 538.2    -50      528.1    -25      529.2    0        531.4    25       537.1    50      
;
NC 0.045    0.045    0.030   
X1 C25               5        -50      50       0.0      0.0      0.0      0.0      0.0     
GR 531.3    -50      530.4    -25      529.2    0        530.0    25       531.4    50      
;
NC 0.045    0.045    0.030   