[TITLE]
Scenario Run :  BASE
SWMM Example with LIDs

[OPTIONS]
;Option and Files Scenario Set: BASE, Base Simulation Options
FLOW_UNITS		CFS
INFILTRATION		HORTON
FLOW_ROUTING		KINWAVE
LINK_OFFSETS		DEPTH
MIN_SLOPE		0.000000
ALLOW_PONDING		NO
SKIP_STEADY_STATE 	NO
IGNORE_RAINFALL		NO
IGNORE_SNOWMELT		NO
IGNORE_GROUNDWATER	NO
IGNORE_QUALITY		NO

START_DATE		01/01/2007
START_TIME		00:00:00
REPORT_START_DATE	01/01/2007
REPORT_START_TIME	00:00:00
END_DATE		01/01/2007
END_TIME		12:00:00
SWEEP_START		01/01
SWEEP_END		12/31
DRY_DAYS		0.000000
REPORT_STEP		00:01:00
WET_STEP		00:05:00
DRY_STEP		01:00:00
ROUTING_STEP		60

INERTIAL_DAMPING	PARTIAL
NORMAL_FLOW_LIMITED	SLOPE
FORCE_MAIN_EQUATION	H-W
VARIABLE_STEP		0.750000
LENGTHENING_STEP	0
MIN_SURFAREA		0.000000
MINIMUM_STEP		0.5


[FILES]

[RAINGAGES]
RAINGAGE	INTENSITY	0.083333	1.000000	TIMESERIES	2-YR		

[HYDROGRAPHS]

[EVAPORATION]
CONSTANT	0.200000
DRY_ONLY	NO

[TEMPERATURE]

[ADJUSTMENTS]

[SUBCATCHMENTS]
S1	RAINGAGE	SWALE4	4.550000	56.800000	1587.000000	2.000000	0.000000
S2	RAINGAGE	O1	4.740000	63.000000	1653.000000	2.000000	0.000000
S3	RAINGAGE	SWALE3	3.700000	39.500000	1456.000000	3.100000	0.000000
S4	RAINGAGE	SWALE4	6.820000	49.900000	2331.000000	3.100000	0.000000
S5	RAINGAGE	O1	6.600000	87.700000	1670.000000	2.000000	0.000000
S6	RAINGAGE	SWALE6	2.580000	0.000000	907.000000	3.100000	0.000000
SWALE3	RAINGAGE	SWALE4	0.330000	0.000000	50.000000	0.500000	0.000000
SWALE4	RAINGAGE	SWALE6	0.500000	0.000000	50.000000	0.500000	0.000000
SWALE6	RAINGAGE	O1	0.410000	0.000000	50.000000	0.500000	0.000000

[SUBAREAS]
S1	0.015000	0.240000	0.060000	0.300000	25.000000	OUTLET
S2	0.015000	0.240000	0.060000	0.300000	25.000000	OUTLET
S3	0.015000	0.240000	0.060000	0.300000	25.000000	OUTLET
S4	0.015000	0.240000	0.060000	0.300000	25.000000	OUTLET
S5	0.015000	0.240000	0.060000	0.300000	25.000000	OUTLET
S6	0.015000	0.240000	0.060000	0.300000	25.000000	OUTLET
SWALE3	0.010000	0.200000	0.050000	0.050000	25.000000	OUTLET
SWALE4	0.010000	0.200000	0.050000	0.050000	25.000000	OUTLET
SWALE6	0.010000	0.200000	0.050000	0.050000	25.000000	OUTLET

[INFILTRATION]
S1	3.000000	0.100000	0.050000	0.001000	0.000000
S2	3.000000	0.100000	0.050000	0.001000	0.000000
S3	3.000000	0.100000	0.050000	0.001000	0.000000
S4	3.000000	0.100000	0.050000	0.001000	0.000000
S5	3.000000	0.100000	0.050000	0.001000	0.000000
S6	3.000000	0.100000	0.050000	0.001000	0.000000
SWALE3	3.000000	0.100000	0.050000	0.001000	0.000000
SWALE4	3.000000	0.100000	0.050000	0.001000	0.000000
SWALE6	3.000000	0.100000	0.050000	0.001000	0.000000

[AQUIFERS]

[GROUNDWATER]

[GWF]

[SNOWPACKS]

[LID_CONTROLS]
RAINBARRELS	RB
RAINBARRELS	STORAGE	48.000000	1.000000	0.000000	0.000000
RAINBARRELS	DRAIN	1.000000	0.500000	0.000000	10.000000	0.000000	0.000000


[LID_USAGE]
S1	RAINBARRELS	32	6193.687500	12.000000	0.000000	17.000000	1	*

[JUNCTIONS]

[OUTFALLS]
O1	4962.000000	FREE	NO

[DIVIDERS]

[STORAGE]

[CONDUITS]

[PUMPS]

[ORIFICES]

[WEIRS]

[XSECTIONS]

[TRANSECTS]

[LOSSES]

[CONTROLS]

[POLLUTANTS]

[LANDUSES]

[COVERAGES]

[BUILDUP]

[WASHOFF]

[TREATMENT]

[INFLOWS]

[DWF]

[RDII]

[LOADINGS]

[CURVES]

[TIMESERIES]
2-YR	0:00	0.290000
2-YR	0:05	0.330000
2-YR	0:10	0.380000
2-YR	0:15	0.640000
2-YR	0:20	0.810000
2-YR	0:25	1.570000
2-YR	0:30	2.850000
2-YR	0:35	1.180000
2-YR	0:40	0.710000
2-YR	0:45	0.420000
2-YR	0:50	0.350000
2-YR	0:55	0.300000
2-YR	1:00	0.200000
2-YR	1:05	0.190000
2-YR	1:10	0.180000
2-YR	1:15	0.170000
2-YR	1:20	0.170000
2-YR	1:25	0.160000
2-YR	1:30	0.150000
2-YR	1:35	0.150000
2-YR	1:40	0.140000
2-YR	1:45	0.140000
2-YR	1:50	0.130000
2-YR	1:55	0.130000

10-YR	0:00	0.490000
10-YR	0:05	0.560000
10-YR	0:10	0.650000
10-YR	0:15	1.090000
10-YR	0:20	1.390000
10-YR	0:25	2.690000
10-YR	0:30	4.870000
10-YR	0:35	2.020000
10-YR	0:40	1.210000
10-YR	0:45	0.710000
10-YR	0:50	0.600000
10-YR	0:55	0.520000
10-YR	1:00	0.390000
10-YR	1:05	0.370000
10-YR	1:10	0.350000
10-YR	1:15	0.340000
10-YR	1:20	0.320000
10-YR	1:25	0.310000
10-YR	1:30	0.300000
10-YR	1:35	0.290000
10-YR	1:40	0.280000
10-YR	1:45	0.270000
10-YR	1:50	0.260000
10-YR	1:55	0.250000

100-YR	0:00	1.000000
100-YR	0:05	1.140000
100-YR	0:10	1.330000
100-YR	0:15	2.230000
100-YR	0:20	2.840000
100-YR	0:25	5.490000
100-YR	0:30	9.950000
100-YR	0:35	4.120000
100-YR	0:40	2.480000
100-YR	0:45	1.460000
100-YR	0:50	1.220000
100-YR	0:55	1.060000
100-YR	1:00	1.000000
100-YR	1:05	0.950000
100-YR	1:10	0.910000
100-YR	1:15	0.870000
100-YR	1:20	0.840000
100-YR	1:25	0.810000
100-YR	1:30	0.780000
100-YR	1:35	0.750000
100-YR	1:40	0.730000
100-YR	1:45	0.710000
100-YR	1:50	0.690000
100-YR	1:55	0.670000


[PATTERNS]

[REPORT]
;Report Option Set: BASE, Base Simulation Report
INPUT YES
CONTINUITY YES
FLOWSTATS YES
CONTROLS NO
AVERAGES NO
SUBCATCHMENTS  ALL
NODES  ALL
LINKS  ALL

[COORDINATES]
O1	1411.468000	477.401000


[POLYGONS]

S1	282.657000	1334.810000
S1	111.700000	1101.604000
S1	172.525000	1062.743000
S1	231.660000	1027.262000
S1	306.002000	990.092000
S1	370.206000	959.679000
S1	409.066000	946.163000
S1	444.547000	936.025000
S1	493.545000	924.198000
S1	532.405000	915.750000
S1	569.576000	907.302000
S1	610.125000	897.165000
S1	655.744000	897.165000
S1	684.338000	1318.700000
S1	651.043000	1321.922000
S1	596.269000	1332.662000
S1	551.160000	1346.624000
S1	495.312000	1367.030000
S1	455.573000	1384.214000
S1	410.465000	1409.991000
S1	386.836000	1427.175000
S1	363.208000	1442.211000

S2	678.967000	1238.149000
S2	673.584000	1152.903000
S2	655.744000	897.165000
S2	758.808000	893.786000
S2	817.943000	895.475000
S2	880.458000	898.855000
S2	921.007000	905.613000
S2	978.453000	920.819000
S2	1042.657000	937.715000
S2	1103.482000	959.679000
S2	1159.238000	985.023000
S2	1225.131000	1010.367000
S2	1109.646000	1274.665000
S2	1052.723000	1400.325000
S2	985.061000	1370.252000
S2	924.916000	1348.772000
S2	861.549000	1331.588000
S2	815.367000	1325.144000
S2	762.740000	1319.774000
S2	719.780000	1316.552000
S2	684.338000	1317.626000

S3	109.199000	1103.258000
S3	141.754000	1081.555000
S3	190.586000	1051.713000
S3	247.557000	1019.158000
S3	304.528000	989.317000
S3	354.716000	964.900000
S3	398.123000	949.980000
S3	490.166000	922.509000
S3	474.292000	876.374000
S3	501.993000	816.065000
S3	556.059000	778.895000
S3	488.476000	679.210000
S3	422.582000	729.897000
S3	282.348000	557.560000
S3	179.734000	633.927000
S3	153.962000	651.561000
S3	107.843000	693.610000
S3	71.218000	742.443000
S3	48.159000	785.849000
S3	31.881000	837.394000
S3	29.168000	886.226000
S3	31.881000	933.702000
S3	38.664000	967.613000
S3	50.872000	1001.525000
S3	65.793000	1035.436000
S3	87.496000	1070.704000
S3	109.199000	1103.258000

S4	282.348000	559.250000
S4	420.893000	729.897000
S4	488.476000	680.899000
S4	556.828000	779.067000
S4	501.213000	814.335000
S4	474.292000	876.374000
S4	491.718000	922.851000
S4	616.511000	898.434000
S4	668.056000	897.078000
S4	783.355000	895.722000
S4	815.909000	898.434000
S4	857.959000	899.791000
S4	890.595000	897.165000
S4	968.316000	915.750000
S4	1042.657000	937.715000
S4	1074.759000	849.857000
S4	1054.484000	773.826000
S4	1020.692000	702.864000
S4	963.247000	623.454000
S4	689.536000	256.816000

S5	1397.873000	478.033000
S5	1408.099000	429.463000
S5	1372.310000	393.674000
S5	1336.522000	339.991000
S5	1287.951000	268.414000
S5	1247.050000	168.718000
S5	1226.600000	51.127000
S5	1027.206000	46.014000
S5	807.362000	40.901000
S5	789.468000	109.922000
S5	740.898000	186.612000
S5	694.884000	258.189000
S5	1023.446000	704.462000
S5	1150.644000	618.812000
S5	1224.043000	562.392000
S5	1313.515000	503.596000

S6	1122.467000	968.970000
S6	1174.012000	987.282000
S6	1225.557000	1005.594000
S6	1377.480000	675.977000
S6	1391.044000	642.065000
S6	1396.470000	598.659000
S6	1395.317000	480.589000
S6	1316.071000	503.596000
S6	1216.374000	570.061000
S6	1150.644000	617.241000
S6	1020.733000	704.462000
S6	1054.645000	772.285000
S6	1076.796000	848.212000
S6	1056.370000	900.062000
S6	1040.658000	937.772000

SWALE3	283.315000	920.277000
SWALE3	616.781000	831.709000
SWALE3	633.132000	871.873000
SWALE3	290.984000	958.622000

SWALE4	617.343000	831.761000
SWALE4	1113.210000	830.993000
SWALE4	1116.207000	879.551000
SWALE4	633.558000	871.873000

SWALE6	1113.809000	831.592000
SWALE6	1177.955000	787.230000
SWALE6	1213.337000	741.244000
SWALE6	1366.957000	486.918000
SWALE6	1392.560000	504.840000
SWALE6	1298.681000	680.649000
SWALE6	1238.940000	778.795000
SWALE6	1133.967000	876.941000
SWALE6	1116.207000	879.551000

[VERTICES]


[SYMBOLS]
RAINGAGE	469.937000	1277.351000

[MAP]
DIMENSIONS	-39.947000	-29.164500	1480.583000	1512.276500

