[TITLE]
;;Project Title/Notes
HRSD Test model This simulates a pressure control valve. No pump stations.

[OPTIONS]
;;Option             Value
FLOW_UNITS           CFS
INFILTRATION         GREEN_AMPT
FLOW_ROUTING         DYNWAVE
LINK_OFFSETS         DEPTH
MIN_SLOPE            0
ALLOW_PONDING        NO
SKIP_STEADY_STATE    NO

START_DATE           07/01/1999
START_TIME           00:00:00
REPORT_START_DATE    07/01/1999
REPORT_START_TIME    00:00:00
END_DATE             07/05/1999
END_TIME             00:00:00
SWEEP_START          01/01
SWEEP_END            12/31
DRY_DAYS             0
REPORT_STEP          00:00:10
WET_STEP             00:05:00
DRY_STEP             01:00:00
ROUTING_STEP         0:00:10 
RULE_STEP            00:00:00

INERTIAL_DAMPING     NONE
NORMAL_FLOW_LIMITED  SLOPE
FORCE_MAIN_EQUATION  H-W
VARIABLE_STEP        0.75
LENGTHENING_STEP     0
MIN_SURFAREA         0.000000001
MAX_TRIALS           8
HEAD_TOLERANCE       0.005
SYS_FLOW_TOL         5
LAT_FLOW_TOL         5
MINIMUM_STEP         0.5
THREADS              1

[EVAPORATION]
;;Data Source    Parameters
;;-------------- ----------------
CONSTANT         0.0
DRY_ONLY         NO

[JUNCTIONS]
;;Name           Elevation  MaxDepth   InitDepth  SurDepth   Aponded   
;;-------------- ---------- ---------- ---------- ---------- ----------
1                0          0          0          1000       0         
2                0          0          0          1000       0         
3                0          0          0          1000       0         
4                0          0          0          1000       0         
5                0          0          0          1000       0         
6                0          0          0          1000       0         
7                0          0          0          1000       0         
8                0          0          0          1000       0         
9                0          0          0          1000       0         
10               0          0          0          1000       0         
11               0          0          0          1000       0         
12               0          0          0          1000       0         
13               0          0          0          1000       0         
14               0          0          0          1000       0         
15               0          0          0          1000       0         
16               0          0          0          1000       0         
17               0          0          0          1000       0         
18               0          0          0          1000       0         
19               0          0          0          1000       0         
20               0          0          0          1000       0         
21               0          0          0          1000       0         
22               0          0          0          1000       0         
23               0          0          0          1000       0         
24               0          0          0          1000       0         
25               0          0          0          1000       0         
26               0          0          0          1000       0         
27               0          0          0          1000       0         
28               0          0          0          1000       0         
29               0          0          0          1000       0         
30               0          0          0          1000       0         
31               0          0          0          1000       0         
32               0          0          0          1000       0         
33               0          0          0          1000       0         
34               0          0          0          1000       0         
35               0          0          0          1000       0         
36               0          0          0          1000       0         
37               0          0          0          1000       0         
38               0          0          0          1000       0         
39               0          0          0          1000       0         
40               0          0          0          1000       0         
41               0          0          0          1000       0         
42               0          0          0          1000       0         
43               0          0          0          1000       0         
44               0          0          0          1000       0         
45               0          0          0          1000       0         
46               0          0          0          1000       0         
47               0          0          0          1000       0         
48               0          0          0          1000       0         
49               0          0          0          1000       0         
50               0          0          0          1000       0         
51               0          0          0          1000       0         
52               0          0          0          1000       0         
53               0          0          0          1000       0         
54               0          0          0          1000       0         
55               0          0          0          1000       0         
56               0          0          0          1000       0         
57               0          0          0          1000       0         
58               0          0          0          1000       0         
59               0          0          0          1000       0         
60               0          0          0          1000       0         
61               0          0          0          1000       0         
62               0          0          0          1000       0         
63               0          0          0          1000       0         
64               0          0          0          1000       0         
65               0          0          0          1000       0         
66               0          0          0          1000       0         
67               0          0          0          1000       0         
68               0          0          0          1000       0         
69               0          0          0          1000       0         
70               0          0          0          1000       0         
71               0          0          0          1000       0         
72               0          0          0          1000       0         
73               0          0          0          1000       0         
74               0          0          0          1000       0         
75               0          0          0          1000       0         
76               0          0          0          1000       0         
77               0          0          0          1000       0         
78               0          0          0          1000       0         
79               0          0          0          1000       0         
80               0          0          0          1000       0         
82               0          0          0          1000       0         
83               0          0          0          1000       0         
84               0          0          0          1000       0         
85               0          0          0          1000       0         
86               0          0          0          1000       0         
87               0          0          0          1000       0         
88               0          0          0          1000       0         
89               0          0          0          1000       0         
90               0          0          0          1000       0         
91               0          0          0          1000       0         
92               0          0          0          1000       0         
93               0          0          0          1000       0         
94               0          0          0          1000       0         
95               0          0          0          1000       0         
96               0          0          0          1000       0         
97               0          0          0          1000       0         
98               0          0          0          1000       0         
99               0          0          0          1000       0         
100              0          0          0          1000       0         
101              0          0          0          1000       0         
102              0          0          0          1000       0         
103              0          0          0          1000       0         
104              0          0          0          1000       0         
105              0          0          0          1000       0         
106              0          0          0          1000       0         
107              0          0          0          1000       0         
108              0          0          0          1000       0         
109              0          0          0          1000       0         
110              0          0          0          1000       0         
111              0          0          0          1000       0         
112              0          0          0          1000       0         
113              0          0          0          1000       0         
114              0          0          0          1000       0         
115              0          0          0          1000       0         
116              0          0          0          1000       0         
117              0          0          0          1000       0         
118              0          0          0          1000       0         
119              0          0          0          1000       0         
120              0          0          0          1000       0         
121              0          0          0          1000       0         
122              0          0          0          1000       0         
123              0          0          0          1000       0         
124              0          0          0          1000       0         
125              0          0          0          1000       0         
126              0          0          0          1000       0         
127              0          0          0          1000       0         
128              0          0          0          1000       0         
129              0          0          0          1000       0         
130              0          0          0          1000       0         
131              0          0          0          1000       0         
132              0          0          0          1000       0         
133              0          0          0          1000       0         
134              0          0          0          1000       0         
135              0          0          0          1000       0         
136              0          0          0          1000       0         
137              0          0          0          1000       0         
138              0          0          0          1000       0         
139              0          0          0          1000       0         
140              0          0          0          1000       0         
141              0          0          0          1000       0         
142              0          0          0          1000       0         
143              0          0          0          1000       0         
144              0          0          0          1000       0         
145              0          0          0          1000       0         
146              0          0          0          1000       0         
147              0          0          0          1000       0         
148              0          0          0          1000       0         
149              5          0          0          1000       0         
231              0          0          0          1000       0         

[OUTFALLS]
;;Name           Elevation  Type       Stage Data       Gated    Route To        
;;-------------- ---------- ---------- ---------------- -------- ----------------
150              10         FREE                        NO                       

[CONDUITS]
;;Name           From Node        To Node          Length     Roughness  InOffset   OutOffset  InitFlow   MaxFlow   
;;-------------- ---------------- ---------------- ---------- ---------- ---------- ---------- ---------- ----------
1                1                2                500.00     0.013      0          0          0          0         
2                2                3                500.00     0.013      0          0          0          0         
3                3                4                500.00     0.013      0          0          0          0         
4                4                5                500.00     0.013      0          0          0          0         
5                5                6                500.00     0.013      0          0          0          0         
6                6                7                500.00     0.013      0          0          0          0         
7                7                8                500.00     0.013      0          0          0          0         
8                8                9                500.00     0.013      0          0          0          0         
9                9                10               500.00     0.013      0          0          0          0         
10               10               11               500.00     0.013      0          0          0          0         
11               11               12               500.00     0.013      0          0          0          0         
12               12               13               500.00     0.013      0          0          0          0         
13               13               14               500.00     0.013      0          0          0          0         
14               14               15               500.00     0.013      0          0          0          0         
15               15               16               500.00     0.013      0          0          0          0         
16               16               17               500.00     0.013      0          0          0          0         
17               17               18               500.00     0.013      0          0          0          0         
18               18               19               500.00     0.013      0          0          0          0         
19               19               20               500.00     0.013      0          0          0          0         
20               20               21               500.00     0.013      0          0          0          0         
21               21               22               500.00     0.013      0          0          0          0         
22               22               23               500.00     0.013      0          0          0          0         
23               23               24               500.00     0.013      0          0          0          0         
24               24               25               500.00     0.013      0          0          0          0         
25               25               26               500.00     0.013      0          0          0          0         
26               26               27               500.00     0.013      0          0          0          0         
27               27               28               500.00     0.013      0          0          0          0         
28               28               29               500.00     0.013      0          0          0          0         
29               29               30               500.00     0.013      0          0          0          0         
30               30               31               500.00     0.013      0          0          0          0         
31               31               32               500.00     0.013      0          0          0          0         
32               32               33               500.00     0.013      0          0          0          0         
33               33               34               500.00     0.013      0          0          0          0         
34               34               35               500.00     0.013      0          0          0          0         
35               35               36               500.00     0.013      0          0          0          0         
36               36               37               500.00     0.013      0          0          0          0         
37               37               38               500.00     0.013      0          0          0          0         
38               38               39               500.00     0.013      0          0          0          0         
39               39               40               500.00     0.013      0          0          0          0         
40               40               41               500.00     0.013      0          0          0          0         
41               41               42               500.00     0.013      0          0          0          0         
42               42               43               500.00     0.013      0          0          0          0         
43               43               44               500.00     0.013      0          0          0          0         
44               44               45               500.00     0.013      0          0          0          0         
45               45               46               500.00     0.013      0          0          0          0         
46               46               47               500.00     0.013      0          0          0          0         
47               47               48               500.00     0.013      0          0          0          0         
48               48               49               500.00     0.013      0          0          0          0         
49               49               50               500.00     0.013      0          0          0          0         
50               50               51               500.00     0.013      0          0          0          0         
51               51               52               500.00     0.013      0          0          0          0         
52               52               53               500.00     0.013      0          0          0          0         
53               53               54               500.00     0.013      0          0          0          0         
54               54               55               500.00     0.013      0          0          0          0         
55               55               56               500.00     0.013      0          0          0          0         
56               56               57               500.00     0.013      0          0          0          0         
57               57               58               500.00     0.013      0          0          0          0         
58               58               59               500.00     0.013      0          0          0          0         
59               59               60               500.00     0.013      0          0          0          0         
60               60               61               500.00     0.013      0          0          0          0         
61               61               62               500.00     0.013      0          0          0          0         
62               62               63               500.00     0.013      0          0          0          0         
63               63               64               500.00     0.013      0          0          0          0         
64               64               65               500.00     0.013      0          0          0          0         
65               65               66               500.00     0.013      0          0          0          0         
66               66               67               500.00     0.013      0          0          0          0         
67               67               68               500.00     0.013      0          0          0          0         
68               68               69               500.00     0.013      0          0          0          0         
69               69               70               500.00     0.013      0          0          0          0         
70               70               71               500.00     0.013      0          0          0          0         
71               71               72               500.00     0.013      0          0          0          0         
72               72               73               500.00     0.013      0          0          0          0         
73               73               74               500.00     0.013      0          0          0          0         
74               74               75               500.00     0.013      0          0          0          0         
75               75               76               500.00     0.013      0          0          0          0         
76               76               77               500.00     0.013      0          0          0          0         
77               77               78               500.00     0.013      0          0          0          0         
78               78               79               500.00     0.013      0          0          0          0         
79               79               80               500.00     0.013      0          0          0          0         
80               80               231              500.00     0.013      0          0          0          0         
82               82               83               500.00     0.013      0          0          0          0         
83               83               84               500.00     0.013      0          0          0          0         
84               84               85               500.00     0.013      0          0          0          0         
85               85               86               500.00     0.013      0          0          0          0         
86               86               87               500.00     0.013      0          0          0          0         
87               87               88               500.00     0.013      0          0          0          0         
88               88               89               500.00     0.013      0          0          0          0         
89               89               90               500.00     0.013      0          0          0          0         
90               90               91               500.00     0.013      0          0          0          0         
91               91               92               500.00     0.013      0          0          0          0         
92               92               93               500.00     0.013      0          0          0          0         
93               93               94               500.00     0.013      0          0          0          0         
94               94               95               500.00     0.013      0          0          0          0         
95               95               96               500.00     0.013      0          0          0          0         
96               96               97               500.00     0.013      0          0          0          0         
97               97               98               500.00     0.013      0          0          0          0         
98               98               99               500.00     0.013      0          0          0          0         
99               99               100              500.00     0.013      0          0          0          0         
100              100              101              500.00     0.013      0          0          0          0         
101              101              102              500.00     0.013      0          0          0          0         
102              102              103              500.00     0.013      0          0          0          0         
103              103              104              500.00     0.013      0          0          0          0         
104              104              105              500.00     0.013      0          0          0          0         
105              105              106              500.00     0.013      0          0          0          0         
106              106              107              500.00     0.013      0          0          0          0         
107              107              108              500.00     0.013      0          0          0          0         
108              108              109              500.00     0.013      0          0          0          0         
109              109              110              500.00     0.013      0          0          0          0         
110              110              111              500.00     0.013      0          0          0          0         
111              111              112              500.00     0.013      0          0          0          0         
112              112              113              500.00     0.013      0          0          0          0         
113              113              114              500.00     0.013      0          0          0          0         
114              114              115              500.00     0.013      0          0          0          0         
115              115              116              500.00     0.013      0          0          0          0         
116              116              117              500.00     0.013      0          0          0          0         
117              117              118              500.00     0.013      0          0          0          0         
118              118              119              500.00     0.013      0          0          0          0         
119              119              120              500.00     0.013      0          0          0          0         
120              120              121              500.00     0.013      0          0          0          0         
121              121              122              500.00     0.013      0          0          0          0         
122              122              123              500.00     0.013      0          0          0          0         
123              123              124              500.00     0.013      0          0          0          0         
124              124              125              500.00     0.013      0          0          0          0         
125              125              126              500.00     0.013      0          0          0          0         
126              126              127              500.00     0.013      0          0          0          0         
127              127              128              500.00     0.013      0          0          0          0         
128              128              129              500.00     0.013      0          0          0          0         
129              129              130              500.00     0.013      0          0          0          0         
130              130              131              500.00     0.013      0          0          0          0         
131              131              132              500.00     0.013      0          0          0          0         
132              132              133              500.00     0.013      0          0          0          0         
133              133              134              500.00     0.013      0          0          0          0         
134              134              135              500.00     0.013      0          0          0          0         
135              135              136              500.00     0.013      0          0          0          0         
136              136              137              500.00     0.013      0          0          0          0         
137              137              138              500.00     0.013      0          0          0          0         
138              138              139              500.00     0.013      0          0          0          0         
139              139              140              500.00     0.013      0          0          0          0         
140              140              141              500.00     0.013      0          0          0          0         
141              141              142              500.00     0.013      0          0          0          0         
142              142              143              500.00     0.013      0          0          0          0         
143              143              144              500.00     0.013      0          0          0          0         
144              144              145              500.00     0.013      0          0          0          0         
145              145              146              500.00     0.013      0          0          0          0         
146              146              147              500.00     0.013      0          0          0          0         
147              147              148              500.00     0.013      0          0          0          0         
148              148              149              500.00     0.013      0          0          0          0         
149              149              150              500.00     0.013      6          0          0          0         

[ORIFICES]
;;Name           From Node        To Node          Type         Offset     Qcoeff     Gated    CloseTime 