[TITLE]
;;Project Title/Notes

[OPTIONS]
;;Option             Value
FLOW_UNITS           MGD
INFILTRATION         HORTON
FLOW_ROUTING         DYNWAVE
LINK_OFFSETS         DEPTH
MIN_SLOPE            0
ALLOW_PONDING        NO
SKIP_STEADY_STATE    NO

IGNORE_RAINFALL      YES
IGNORE_SNOWMELT      YES
IGNORE_GROUNDWATER   YES
IGNORE_QUALITY       YES
START_DATE           12/31/1944
START_TIME           18:00:00
REPORT_START_DATE    12/31/1944
REPORT_START_TIME    18:00:00
END_DATE             01/07/1945
END_TIME             00:00:00
SWEEP_START          01/01
SWEEP_END            12/31
DRY_DAYS             0.000000
REPORT_STEP          00:05:00
WET_STEP             01:00:00
DRY_STEP             01:00:00
ROUTING_STEP         0:00:05 

INERTIAL_DAMPING     PARTIAL
NORMAL_FLOW_LIMITED  FROUDE
FORCE_MAIN_EQUATION  H-W
VARIABLE_STEP        0.75
LENGTHENING_STEP     5
MIN_SURFAREA         12.557
MAX_TRIALS           8
HEAD_TOLERANCE       0.000010
SYS_FLOW_TOL         5
LAT_FLOW_TOL         5
MINIMUM_STEP         0.5
THREADS              1

[EVAPORATION]
;;Data Source    Parameters
;;-------------- ----------------
CONSTANT         0.0
DRY_ONLY         NO

[JUNCTIONS]
;;Name           Elevation  MaxDepth   InitDepth  SurDepth   Aponded   
;;-------------- ---------- ---------- ---------- ---------- ----------
1017             97.210000  11.113000  0.000000   0.000000   0.000000  
1018             98.550000  9.671000   0.000000   0.000000   0.000000  
1019             98.640000  9.651000   0.000000   0.000000   0.000000  
1020             100.130000 10.312000  0.000000   0.000000   95657.907671
1022             100.170000 10.677000  0.000000   0.000000   0.000000  
1023             101.110000 9.053000   0.000000   0.000000   26833.001423
1025             101.890000 9.074000   0.000000   0.000000   46347.911549
1028             106.490000 9.383000   0.000000   0.000000   98445.751975
1029             107.740000 8.449000   0.000000   0.000000   0.000000  
1030             110.550000 7.567000   0.000000   0.000000   0.000000  
1032             110.770000 7.772000   0.000000   0.000000   134252.127251
1033             111.640000 13.688000  0.000000   0.000000   0.000000  
1034             116.170000 9.523000   0.000000   0.000000   23478.876245
1036             112.880000 16.413000  0.000000   0.000000   0.000000  
11-000-01        101.270000 10.000000  0.000000   0.000000   0.000000  
11-000-02        103.700000 8.280000   0.000000   0.000000   0.000000  
11-000-03        104.200000 10.300000  0.000000   0.000000   0.000000  
11-000-04        104.900000 11.150000  0.000000   0.000000   0.000000  
11-000-05        104.790000 14.400000  0.000000   0.000000   0.000000  
11-000-06        104.880000 14.300000  0.000000   0.000000   0.000000  
; Invert higher than U/S invert in System Map
11-000-07        105.310000 14.800000  0.000000   0.000000   0.000000  
11-000-08        105.060000 13.800000  0.000000   0.000000   0.000000  
11-000-09        105.330000 14.200000  0.000000   0.000000   0.000000  
11-000-10        105.700000 14.000000  0.000000   0.000000   0.000000  
11-000-11        110.080000 13.700000  0.000000   0.000000   0.000000  
11-000-12        111.790000 16.700000  0.000000   0.000000   0.000000  
11-000-33        104.440000 15.600000  0.000000   0.000000   0.000000  
11-000-35        104.880000 16.500000  0.000000   0.000000   0.000000  
11-000-58        112.000000 7.500000   0.000000   0.000000   0.000000  
11-100-01        101.940000 9.350000   0.000000   0.000000   0.000000  
11-100-02        105.000000 6.980000   0.000000   0.000000   0.000000  
11-100-03        105.800000 5.800000   0.000000   0.000000   0.000000  
11-100-05        108.800000 7.970000   0.000000   0.000000   0.000000  
11-100-07        108.780000 6.800000   0.000000   0.000000   0.000000  
11-100-08        109.950000 8.700000   0.000000   0.000000   0.000000  
11-100-09        110.650000 8.650000   0.000000   0.000000   0.000000  
11-100-11        113.000000 9.580000   0.000000   0.000000   0.000000  
1381             112.170000 10.085000  0.000000   0.000000   96529.109016
1383             109.170000 5.947000   0.000000   0.000000   78059.640504
1384             105.890000 6.170000   0.000000   0.000000   163524.492440
1385             104.570000 4.495000   0.000000   0.000000   31798.849089
1387             104.570000 6.450000   0.000000   0.000000   885053.446295
1421             112.870000 8.666000   0.000000   0.000000   1043917.011539
1423             110.370000 5.357000   0.000000   0.000000   6490.450020
1427             108.270000 4.497000   0.000000   0.000000   253040.430629
1428             101.170000 9.120000   0.000000   0.000000   0.000000  
1441             99.170000  8.648000   0.000000   0.000000   122534.469162
1442             102.880000 5.880000   0.000000   0.000000   101756.317086
1504             115.520000 7.295000   0.000000   0.000000   23304.635976
1506             116.860000 7.265000   0.000000   0.000000   72483.951897
1507             111.860000 7.782000   0.000000   0.000000   86248.933146
1509             109.220000 8.821000   0.000000   0.000000   76622.158285
1512             105.960000 7.274000   0.000000   0.000000   75271.796200
1515             103.240000 8.895000   0.000000   0.000000   672698.118473
1516             102.710000 8.269000   0.000000   0.000000   0.000000  
1517             100.730000 10.373000  0.000000   0.000000   80281.203934
200000           95.625505  15.474000  0.000000   0.000000   0.000000  
200001           96.035490  16.785000  0.000000   0.000000   0.000000  
200100           96.537512  14.762488  0.000000   0.000000   0.000000  
200101           96.997698  16.302302  0.000000   0.000000   0.000000  
200102           97.240342  9.740000   0.000000   0.000000   0.000000  
200103           97.721446  7.578554   0.000000   0.000000   0.000000  
200104           98.190000  10.950000  0.000000   0.000000   0.000000  
200105           98.810000  8.920000   0.000000   0.000000   0.000000  
200106           98.850000  9.020000   0.000000   0.000000   0.000000  
200107           99.590000  8.280000   0.000000   0.000000   0.000000  
200108           101.300000 13.150000  0.000000   0.000000   0.000000  
200109           101.350000 14.290000  0.000000   0.000000   0.000000  
200110           101.450000 19.540000  0.000000   0.000000   0.000000  
200111           101.700000 18.050000  0.000000   0.000000   0.000000  
200112           101.800000 9.990000   0.000000   0.000000   0.000000  
200113           101.850000 7.620000   0.000000   0.000000   0.000000  
200114           102.000000 6.160000   0.000000   0.000000   0.000000  
200116           104.910000 5.000000   0.000000   0.000000   0.000000  
2871             104.970000 5.082000   0.000000   0.000000   0.000000  
2875             98.910000  9.543000   0.000000   0.000000   0.000000  
2878             104.860000 8.129000   0.000000   0.000000   0.000000  
2879             105.170000 7.672000   0.000000   0.000000   0.000000  
2880             106.520000 6.147000   0.000000   0.000000   0.000000  
2881             106.730000 7.310000   0.000000   0.000000   0.000000  
2902             101.756000 7.573000   0.000000   0.000000   0.000000  
2921             108.250000 6.232000   0.000000   0.000000   50006.957198
3111             102.050000 8.581000   0.000000   0.000000   0.000000  
3112             99.500000  10.748000  0.000000   0.000000   40772.222942
3117             102.070000 5.803000   0.000000   0.000000   100362.394934
3118             96.510000  10.496000  0.000000   0.000000   0.000000  
3119             96.060000  10.750000  0.000000   0.000000   0.000000  
4930             98.700000  8.687000   0.000000   0.000000   0.000000  
4935             99.000000  8.433000   0.000000   0.000000   0.000000  
4936             99.310000  8.466000   0.000000   0.000000   0.000000  
4939             100.660000 9.025000   0.000000   0.000000   151850.394418
54-000-01        97.270000  10.000000  0.000000   0.000000   0.000000  
54-000-03        97.110000  12.200000  0.000000   0.000000   0.000000  
54-000-04        97.110000  11.700000  0.000000   0.000000   0.000000  
54-000-05        97.250000  7.050000   0.000000   0.000000   0.000000  
54-000-06        97.420000  9.880000   0.000000   0.000000   0.000000  
54-000-07        97.660000  12.100000  0.000000   0.000000   0.000000  
; Interpolated invert
54-000-08        97.670000  12.742515  0.000000   0.000000   0.000000  
; Interpolated Invert
54-000-09        97.710000  12.782357  0.000000   0.000000   0.000000  
54-000-10        97.900000  18.400000  0.000000   0.000000   0.000000  
; Interpolated Invert
54-000-11        97.960000  18.235300  0.000000   0.000000   0.000000  
54-000-13        98.390000  16.520933  0.000000   0.000000   0.000000  
54-000-14        98.530000  17.521787  0.000000   0.000000   0.000000  
; Interpolated Invert
54-000-15        98.970000  15.618010  0.000000   0.000000   0.000000  
54-000-16        99.230000  10.905335  0.000000   0.000000   0.000000  
54-000-17        99.250000  18.925572  0.000000   0.000000   0.000000  
54-000-18        99.400000  15.387595  0.000000   0.000000   0.000000  
54-000-19        99.480000  14.137760  0.000000   0.000000   0.000000  
54-000-20        99.609000  15.720000  0.000000   0.000000   0.000000  
; Invert from as-built
54-000-22        100.130000 9.128000   0.000000   0.000000   0.000000  
; from asbuilt, weir crest 2' 1"; length 6'; ht. 7'
54-000-22WEIR    100.130000 9.128000   0.000000   0.000000   0.000000  
54-000-23        99.820000  19.656607  0.000000   0.000000   0.000000  
; no MH ID in sewer map
54-000-23A       99.630000  15.678963  0.000000   0.000000   0.000000  
; Interpolated invert, no ID in sewer map
54-000-23B       99.623000  16.458963  0.000000   0.000000   0.000000  
54-000-24        100.040000 11.123907  0.000000   0.000000   0.000000  
; invert from as-built
54-000-25        100.050000 11.113907  0.000000   0.000000   0.000000  
54-000-26        100.250000 8.651341   0.000000   0.000000   0.000000  
54-000-27        100.300000 8.925297   0.000000   0.000000   0.000000  
54-000-28        101.260000 6.244939   0.000000   0.000000   0.000000  
54-000-29        101.520000 8.084495   0.000000   0.000000   0.000000  
54-000-30        101.500000 7.310748   0.000000   0.000000   0.000000  
54-000-31        101.460000 7.336837   0.000000   0.000000   0.000000  
54-000-32        102.040000 9.464525   0.000000   0.000000   0.000000  
54-000-33        102.350000 13.988654  0.000000   0.000000   0.000000  
54-000-34        102.600000 5.186021   0.000000   0.000000   0.000000  
54-000-35        102.690000 5.858155   0.000000   0.000000   0.000000  
; Interpolated Invert
54-000-36        102.900000 5.361254   0.000000   0.000000   0.000000  
54-000-38        103.400000 5.664894   0.000000   0.000000   0.000000  
54-000-39        104.000000 6.610831   0.000000   0.000000   0.000000  
; Invert lower than D/S sewer in sewer map
54-000-40        103.900000 4.727716   0.000000   0.000000   0.000000  
54-000-42        98.390000  22.900000  0.000000   0.000000   0.000000  
54-001-07        97.130000  10.463891  0.000000   0.000000   0.000000  
54-001-11        97.000000  10.300000  0.000000   0.000000   0.000000  
; upstream pipes are 8"
54-001-12        94.800000  12.500000  0.000000   0.000000   0.000000  
; Interpolated Invert
54-001-17        100.630000 9.697000   0.000000   0.000000   0.000000  
; Interpolated Invert (same as U/S slope)
54-001-18        100.697000 9.630000   0.000000   0.000000   0.000000  
54-001-19        101.140000 10.603451  0.000000   0.000000   0.000000  
54-001-20        102.270000 7.823709   0.000000   0.000000   0.000000  
54-001-21        102.500000 9.016072   0.000000   0.000000   0.000000  
54-001-23        102.480000 9.007598   0.000000   0.000000   0.000000  
54-001-24        102.420000 8.580724   0.000000   0.000000   0.000000  
54-001-25        104.500000 5.438409   0.000000   0.000000   0.000000  
54-001-26        96.700000  15.020649  0.000000   0.000000   0.000000  
54-001-27        96.910000  5.920808   0.000000   0.000000   0.000000  
54-002-07        117.830000 8.469275   0.000000   0.000000   0.000000  
54-002-24        111.100000 13.164054  0.000000   0.000000   0.000000  
54-002-41        106.660000 10.658538  0.000000   0.000000   0.000000  
; Interpolated Invert
54-002-47        113.130000 7.550579   0.000000   0.000000   0.000000  
; Interpolated Invert
54-002-49        98.980000  15.608010  0.000000   0.000000   0.000000  
54-003-15        104.270000 4.504106   0.000000   0.000000   0.000000  
54-003-16        105.100000 4.211491   0.000000   0.000000   0.000000  
54-003-25        108.130000 9.184050   0.000000   0.000000   0.000000  
54-010-01        98.990000  15.598010  0.000000   0.000000   0.000000  
; interpolated invert
54-010-02        99.202000  20.475572  0.000000   0.000000   0.000000  
54-010-03        99.400000  14.528845  0.000000   0.000000   0.000000  
54-010-04        99.570000  15.754508  0.000000   0.000000   0.000000  
54-010-05        100.060000 19.416607  0.000000   0.000000   0.000000  
; Interpolated Invert (inc 8" sewer -1.2)
54-010-06        100.150000 15.874434  0.000000   0.000000   0.000000  
54-010-07        100.180000 12.041536  0.000000   0.000000   0.000000  
; Interpolated Invert
54-010-08        99.250000  20.518400  0.000000   0.000000   0.000000  
54-020-01        101.120000 7.520923   0.000000   0.000000   0.000000  
54-020-02        101.310000 6.962067   0.000000   0.000000   0.000000  
54-020-03        101.610000 10.585949  0.000000   0.000000   0.000000  
54-020-04        101.900000 6.242524   0.000000   0.000000   0.000000  
54-100-01        101.640000 8.693197   0.000000   0.000000   0.000000  
54-100-02        102.740000 12.884039  0.000000   0.000000   0.000000  
54-100-03        103.150000 10.388523  0.000000   0.000000   0.000000  
54-100-04        103.570000 10.141394  0.000000   0.000000   0.000000  
54-100-05        103.980000 4.191135   0.000000   0.000000   0.000000  
54-100-06        104.400000 3.566674   0.000000   0.000000   0.000000  
54-100-07        107.270000 8.022847   0.000000   0.000000   0.000000  
54-100-08        111.000000 8.661753   0.000000   0.000000   0.000000  
54-101-05        111.160000 10.232632  0.000000   0.000000   0.000000  
54-103-01        104.830000 3.735307   0.000000   0.000000   0.000000  
54-103-02        105.300000 5.005725   0.000000   0.000000   0.000000  
54-103-03        105.680000 6.643258   0.000000   0.000000   0.000000  
54-103-08        108.980000 8.075352   0.000000   0.000000   0.000000  
54-200-01        100.490000 8.411341   0.000000   0.000000   0.000000  
54-200-02        102.000000 7.017690   0.000000   0.000000   0.000000  
54-200-03        102.250000 8.063903   0.000000   0.000000   0.000000  
54-200-04        102.310000 8.036996   0.000000   0.000000   0.000000  
54-200-05        102.840000 8.120099   0.000000   0.000000   0.000000  
54-200-06        103.350000 7.944757   0.000000   0.000000   0.000000  
54-200-07        105.420000 7.755937   0.000000   0.000000   0.000000  
54-200-08        106.830000 6.728909   0.000000   0.000000   0.000000  
54-200-09        107.730000 7.671099   0.000000   0.000000   0.000000  
54-200-10        108.910000 7.744527   0.000000   0.000000   0.000000  
54-201-28        103.300000 6.336491   0.000000   0.000000   0.000000  
54-201-29        103.060000 6.706542   0.000000   0.000000   0.000000  
54-201-34        102.450000 6.567690   0.000000   0.000000   0.000000  
54-370-01        97.790000  8.637372   0.000000   0.000000   0.000000  
54-370-02        98.410000  6.366248   0.000000   0.000000   0.000000  
54-370-03        98.700000  9.585647   0.000000   0.000000   0.000000  
54-370-04        98.700000  8.237874   0.000000   0.000000   0.000000  
; invert higher than U/S sewer in sewer map
54-370-05        99.900000  7.513000   0.000000   0.000000   0.000000  
; invert higher than U/S sewer in sewer map
54-370-06        99.370000  9.330344   0.000000   0.000000   0.000000  
54-370-07        99.270000  6.224819   0.000000   0.000000   0.000000  
54-370-08        99.500000  7.664442   0.000000   0.000000   0.000000  
54-370-09        99.660000  8.315327   0.000000   0.000000   0.000000  
54-370-10        99.830000  6.887990   0.000000   0.000000   0.000000  
54-370-11        100.360000 6.520539   0.000000   0.000000   0.000000  
54-370-12        100.900000 6.383368   0.000000   0.000000   0.000000  
54-370-13        101.030000 5.525268   0.000000   0.000000   0.000000  
54-370-14        101.200000 7.133693   0.000000   0.000000   0.000000  
54-370-16        96.210000  30.802036  0.000000   0.000000   0.000000  
54-370-17        96.850000  18.474508  0.000000   0.000000   0.000000  
54-370-18        96.750000  18.574508  0.000000   0.000000   0.000000  
54-370-19        97.020000  14.227366  0.000000   0.000000   0.000000  
54-370-20        97.260000  8.574987   0.000000   0.000000   0.000000  
54-370-21        97.280000  6.569659   0.000000   0.000000   0.000000  
54-370-23        96.900000  16.517811  0.000000   0.000000   0.000000  
54-370-24        94.240000  12.260000  0.000000   0.000000   0.000000  
54-370-25        94.450000  12.550000  0.000000   0.000000   0.000000  
54-370-26        94.500000  15.500000  0.000000   0.000000   0.000000  
54-370-27        94.590000  16.410000  0.000000   0.000000   0.000000  
54-370-28        94.690000  14.310000  0.000000   0.000000   0.000000  
54-370-29        96.000000  13.200000  0.000000   0.000000   0.000000  
54-370-30        96.150000  11.750000  0.000000   0.000000   0.000000  
54-370-31        96.240000  9.460000   0.000000   0.000000   0.000000  
54-370-33        92.810000  13.690000  0.000000   0.000000   0.000000  
54-370-34        93.960000  12.040000  0.000000   0.000000   0.000000  
58-000-01        100.790000 8.270588   0.000000   0.000000   0.000000  
58-000-02        101.460000 11.616449  0.000000   0.000000   0.000000  
; Interpolated Invert
58-000-03        103.030000 12.103782  0.000000   0.000000   0.000000  
; Interpolated Invert
58-000-04        103.240000 12.059517  0.000000   0.000000   0.000000  
58-000-05        103.690000 11.742313  0.000000   0.000000   0.000000  
58-000-06        103.720000 11.761866  0.000000   0.000000   0.000000  
58-000-07        103.900000 12.238589  0.000000   0.000000   0.000000  
58-000-08        106.900000 14.379189  0.000000   0.000000   0.000000  
; Interpolated Invert
58-000-09        107.040000 14.249920  0.000000   0.000000   0.000000  
58-000-10        107.560000 11.736813  0.000000   0.000000   0.000000  
58-000-11        109.800000 11.511070  0.000000   0.000000   0.000000  
58-001-03        102.270000 10.337714  0.000000   0.000000   0.000000  
58-001-04        102.270000 9.268313   0.000000   0.000000   0.000000  
58-001-05        102.740000 9.726376   0.000000   0.000000   0.000000  
; end of pipeline
58-001-06        104.100000 7.908318   0.000000   0.000000   0.000000  
58-001-07        110.040000 5.343984   0.000000   0.000000   0.000000  
; Interpolated Invert
58-001-26        102.600000 9.635710   0.000000   0.000000   0.000000  
; Interpolated Invert
58-001-27        102.570000 8.767675   0.000000   0.000000   0.000000  
; upstream pipes are 8"
58-002-01        100.840000 8.383840   0.000000   0.000000   0.000000  
58-002-16        107.000000 13.024022  0.000000   0.000000   0.000000  
58-002-24        109.410000 11.286786  0.000000   0.000000   0.000000  
; Interpolated Invert
59-000-03        99.800000  9.384152   0.000000   0.000000   0.000000  
59-000-04        100.120000 12.221224  0.000000   0.000000   0.000000  
59-000-05        100.250000 14.080565  0.000000   0.000000   0.000000  
59-000-06        100.470000 14.510168  0.000000   0.000000   0.000000  
; Interpolated Invert
59-000-07        101.240000 14.548209  0.000000   0.000000   0.000000  
59-000-08        101.570000 16.483033  0.000000   0.000000   0.000000  
; Interpolated Invert
59-000-09        112.710000 10.889120  0.000000   0.000000   0.000000  
59-000-10        113.770000 10.448472  0.000000   0.000000   0.000000  
59-001-03        113.000000 9.158658   0.000000   0.000000   0.000000  
; Interpolated Invert
59-100-01        101.670000 6.894563   0.000000   0.000000   0.000000  
; Interpolated Invert
59-100-02        103.820000 7.137690   0.000000   0.000000   0.000000  
59-100-03        105.140000 7.420422   0.000000   0.000000   0.000000  
59-100-04        107.000000 11.149731  0.000000   0.000000   0.000000  
59-100-05        109.200000 10.276153  0.000000   0.000000   0.000000  
59-101-01        105.750000 11.594338  0.000000   0.000000   0.000000  
59-101-02        109.000000 10.678895  0.000000   0.000000   0.000000  
59-200-01        103.010000 7.938399   0.000000   0.000000   0.000000  
59-200-03        106.400000 7.245600   0.000000   0.000000   0.000000  
59-200-04        108.400000 9.807482   0.000000   0.000000   0.000000  
59-201-01        103.950000 7.146414   0.000000   0.000000   0.000000  
; Interpolated Invert
60-000-01        101.510000 10.227380  0.000000   0.000000   0.000000  
60-000-02        101.630000 10.266090  0.000000   0.000000   0.000000  
60-000-03        103.250000 8.940166   0.000000   0.000000   0.000000  
60-000-04        105.550000 9.186905   0.000000   0.000000   0.000000  
60-000-05        106.870000 10.643776  0.000000   0.000000   0.000000  
60-000-06        107.370000 10.144000  0.000000   0.000000   0.000000  
60-000-07        115.280000 7.308391   0.000000   0.000000   0.000000  
60-001-01        100.430000 10.923015  0.000000   0.000000   0.000000  
60-001-03        101.120000 10.077556  0.000000   0.000000   0.000000  
60-002-01        103.080000 5.574870   0.000000   0.000000   0.000000  
60-002-02        104.190000 5.103720   0.000000   0.000000   0.000000  
60-002-03        105.000000 4.329862   0.000000   0.000000   0.000000  
60-002-14        109.500000 5.201340   0.000000   0.000000   0.000000  
60-002-17        116.020000 5.181398   0.000000   0.000000   0.000000  
60-002-24        104.500000 4.290368   0.000000   0.000000   0.000000  
60-002-25        109.800000 3.498178   0.000000   0.000000   0.000000  
60-002-28        117.000000 6.276412   0.000000   0.000000   0.000000  
; Interpolated Invert
60-002-42        105.790000 3.539862   0.000000   0.000000   0.000000  
60-002-43        122.230000 8.780052   0.000000   0.000000   0.000000  
60-002-56        104.420000 4.873720   0.000000   0.000000   0.000000  
60-002-57        106.350000 5.749838   0.000000   0.000000   0.000000  
60-002-58        106.520000 5.579838   0.000000   0.000000   0.000000  
; Interpolated Invert
60-002-59        107.300000 5.058666   0.000000   0.000000   0.000000  
60-002-60        112.000000 7.686852   0.000000   0.000000   0.000000  
60-002-83        109.420000 9.894322   0.000000   0.000000   0.000000  
60-002-84        109.480000 9.824974   0.000000   0.000000   0.000000  
60-002-85        122.450000 11.066351  0.000000   0.000000   0.000000  
60-003-01        111.730000 5.906493   0.000000   0.000000   0.000000  
60-003-02        115.800000 5.981394   0.000000   0.000000   0.000000  
60-005-12        113.750000 6.592294   0.000000   0.000000   0.000000  
; invert adjusted +0.35 feet to match connection
60-010-01        100.710000 8.517876   0.000000   0.000000   0.000000  
; invert adjusted +0.35, invert lower than DS invert
60-010-02        100.150000 8.423325   0.000000   0.000000   0.000000  
; invert adjusted +0.35
60-010-03        100.380000 8.692001   0.000000   0.000000   0.000000  
; invert adjusted +0.35
60-010-04        100.790000 7.037496   0.000000   0.000000   0.000000  
; invert adjusted +0.35
60-010-05        100.840000 8.447641   0.000000   0.000000   0.000000  
; invert adjusted +0.35
60-010-06        101.110000 8.165805   0.000000   0.000000   0.000000  
; invert adjusted +0.35
60-010-07        101.390000 7.667965   0.000000   0.000000   0.000000  
; invert adjusted +0.35
60-010-08        101.900000 7.391008   0.000000   0.000000   0.000000  
; Interpolated Invert
60-010-09        102.570000 5.982950   0.000000   0.000000   0.000000  
; invert adjusted +0.35
60-010-10        103.860000 2.196310   0.000000   0.000000   0.000000  
; invert adjusted +0.35
60-010-11        104.100000 2.047305   0.000000   0.000000   0.000000  
; invert adjusted +0.35
60-010-12        104.620000 5.811541   0.000000   0.000000   0.000000  
; invert adjusted +0.35
60-010-13        105.390000 5.885069   0.000000   0.000000   0.000000  
; end of pipeline, invert adjusted +0.35
60-010-14        106.010000 5.269393   0.000000   0.000000   0.000000  
; At PS J
61-000-02        104.200000 9.099961   0.000000   0.000000   0.000000  
; invert adjusted 1.3 ft to match connection
61-010-01        101.910000 10.599188  0.000000   0.000000   0.000000  
; invert adjusted 1.3 ft
61-010-02        106.760000 5.557939   0.000000   0.000000   0.000000  
; invert adjusted 1.3 ft
61-010-03        108.050000 4.684059   0.000000   0.000000   0.000000  
; invert adjusted 1.3 ft
61-010-04        110.610000 3.991517   0.000000   0.000000   0.000000  
62-000-01        109.760000 8.009795   0.000000   0.000000   0.000000  
62-000-02        113.710000 9.274021   0.000000   0.000000   0.000000  
62-000-03        117.000000 8.301408   0.000000   0.000000   0.000000  
; Interpolated Invert
62-010-01        104.603000 10.587804  0.000000   0.000000   0.000000  
; Interpolated Invert
62-010-02        105.662000 11.646717  0.000000   0.000000   0.000000  
; Interpolated Invert
62-010-03        106.963000 12.157518  0.000000   0.000000   0.000000  
62-010-04        108.910000 9.444947   0.000000   0.000000   0.000000  
; no MH ID in sewer map
62-010-04A       110.020000 8.273366   0.000000   0.000000   0.000000  
62-011-32        110.750000 6.912326   0.000000   0.000000   0.000000  
62-011-35        111.850000 7.051364   0.000000   0.000000   0.000000  
62-011-36        112.950000 6.351118   0.000000   0.000000   0.000000  
62-011-38        113.740000 6.528662   0.000000   0.000000   0.000000  
62-030-01        116.000000 10.137734  0.000000   0.000000   0.000000  
62-030-02        116.600000 8.034223   0.000000   0.000000   0.000000  
62-030-03        116.760000 6.750800   0.000000   0.000000   0.000000  
62-030-04        117.400000 11.994196  0.000000   0.000000   0.000000  
62-030-05        118.100000 10.657907  0.000000   0.000000   0.000000  
62-030-06        118.800000 7.240948   0.000000   0.000000   0.000000  
64-200-01        95.390000  13.898625  0.000000   0.000000   0.000000  
64-200-02        100.080000 9.361484   0.000000   0.000000   0.000000  
64-200-03        102.520000 9.916391   0.000000   0.000000   0.000000  
64-200-04        103.670000 15.817798  0.000000   0.000000   0.000000  
; invert from GIS
64-200-05        105.300000 14.921371  0.000000   0.000000   0.000000  
64-200-06        105.770000 15.519182  0.000000   0.000000   0.000000  
64-200-07        106.040000 15.251713  0.000000   0.000000   0.000000  
64-200-08        106.150000 15.135315  0.000000   0.000000   0.000000  
64-200-09        107.120000 16.178268  0.000000   0.000000   0.000000  
64-200-10        110.300000 17.411404  0.000000   0.000000   0.000000  
64-201-33        112.360000 11.675006  0.000000   0.000000   0.000000  
; possible connection to storm pipe?
64-201-58        95.260000  14.039957  0.000000   0.000000   0.000000  
64-201-59        96.700000  10.766805  0.000000   0.000000   0.000000  
64-201-60        97.100000  10.201969  0.000000   0.000000   0.000000  
64-201-61        98.200000  8.919096   0.000000   0.000000   0.000000  
64-201-62        99.100000  8.075195   0.000000   0.000000   0.000000  
64-201-63        99.500000  8.060061   0.000000   0.000000   0.000000  
64-201-64        101.000000 6.299673   0.000000   0.000000   0.000000  
64-201-65        102.500000 4.084092   0.000000   0.000000   0.000000  
64-201-66        103.010000 3.904211   0.000000   0.000000   0.000000  
64-210-01        97.360000  11.581479  0.000000   0.000000   0.000000  
64-210-02        99.240000  10.739566  0.000000   0.000000   0.000000  
64-210-03        102.950000 8.370264   0.000000   0.000000   0.000000  
64-210-04        104.640000 10.658915  0.000000   0.000000   0.000000  
; invert from GIS
64-210-05        108.700000 9.983381   0.000000   0.000000   0.000000  
64-400-01        96.500000  12.148158  0.000000   0.000000   0.000000  
64-400-02        96.800000  12.268917  0.000000   0.000000   0.000000  
64-400-03        99.000000  11.985637  0.000000   0.000000   0.000000  
; Interpolated Invert
64-400-04        102.250000 12.648351  0.000000   0.000000   0.000000  
64-400-05        104.500000 12.903075  0.000000   0.000000   0.000000  
64-400-06        105.500000 13.535165  0.000000   0.000000   0.000000  
64-400-07        106.500000 14.489545  0.000000   0.000000   0.000000  
64-400-08        110.000000 15.153310  0.000000   0.000000   0.000000  
64-401-74        94.250000  13.121667  0.000000   0.000000   0.000000  
64-401-76        98.230000  7.252028   0.000000   0.000000   0.000000  
; Interpolated Invert
64-600-01        94.690000  15.962099  0.000000   0.000000   0.000000  
; Interpolated Invert
64-600-02        95.400000  14.630190  0.000000   0.000000   0.000000  
64-600-03        97.570000  10.208743  0.000000   0.000000   0.000000  
64-600-04        98.000000  9.890811   0.000000   0.000000   0.000000  
64-600-05        99.120000  9.220922   0.000000   0.000000   0.000000  
; Interpolated Invert
64-600-06        99.570000  8.859864   0.000000   0.000000   0.000000  
64-600-07        100.110000 9.188910   0.000000   0.000000   0.000000  
64-600-08        101.030000 9.325909   0.000000   0.000000   0.000000  