[TITLE]
;;Project Title/Notes

[OPTIONS]
;;Option             Value
FLOW_UNITS           GPM
INFILTRATION         HORTON
FLOW_ROUTING         DYNWAVE
LINK_OFFSETS         DEPTH
MIN_SLOPE            0
ALLOW_PONDING        NO
SKIP_STEADY_STATE    NO

START_DATE           01/01/2002
START_TIME           00:00:00
REPORT_START_DATE    01/01/2002
REPORT_START_TIME    00:00:00
END_DATE             01/01/2002
END_TIME             12:00:00
SWEEP_START          01/01
SWEEP_END            12/31
DRY_DAYS             5.000000
REPORT_STEP          00:05:00
WET_STEP             01:00:00
DRY_STEP             23:00:00
ROUTING_STEP         0:00:30 

INERTIAL_DAMPING     NONE
NORMAL_FLOW_LIMITED  BOTH
FORCE_MAIN_EQUATION  H-W
VARIABLE_STEP        0.75
LENGTHENING_STEP     0
MIN_SURFAREA         12.557
MAX_TRIALS           8
HEAD_TOLERANCE       0.005
SYS_FLOW_TOL         5
LAT_FLOW_TOL         5
MINIMUM_STEP         0.5
THREADS              1

[EVAPORATION]
;;Data Source    Parameters
;;-------------- ----------------
CONSTANT         0.0
DRY_ONLY         NO

[JUNCTIONS]
;;Name           Elevation  MaxDepth   InitDepth  SurDepth   Aponded   
;;-------------- ---------- ---------- ---------- ---------- ----------
; New Manhole
10               411.887906 6.000094   0.000000   0.000000   0.000000  
; MP02
10050            310.404700 6.010000   0.000000   0.000000   0.000000  
; MP10
10051            297.980000 5.451900   0.000000   0.000000   0.000000  
; MP21
10052            308.200800 8.779200   0.000000   0.000000   0.000000  
; MP19
10053            303.829700 8.420000   0.000000   0.000000   0.000000  
; MP22
10115            311.870000 5.110000   0.000000   0.000000   0.000000  
; MP23
10116            313.890000 6.300000   0.000000   0.000000   0.000000  
; MP24
10117            309.780000 8.750000   0.000000   0.000000   0.000000  
; MP25
10118            311.240000 6.440000   0.000000   0.000000   0.000000  
; MP26
10119            314.010000 6.300000   0.000000   0.000000   0.000000  
; MP27
10120            315.010000 6.910000   0.000000   0.000000   0.000000  
; MP28
10121            311.740000 5.550000   0.000000   0.000000   0.000000  
; MP29
10122            313.390000 7.170000   0.000000   0.000000   0.000000  
; MP30
10123            314.840000 7.250000   0.000000   0.000000   0.000000  
; MP31
10124            315.790000 5.570000   0.000000   0.000000   0.000000  
; MP32
10125            318.570000 5.970000   0.000000   0.000000   0.000000  
; MP33
10126            322.930000 6.090000   0.000000   0.000000   0.000000  
; MP34
10127            324.110000 4.920000   0.000000   0.000000   0.000000  
; MP35
10128            326.040000 6.350000   0.000000   0.000000   0.000000  
; New Manhole
12               411.586218 5.999782   0.000000   0.000000   0.000000  
; New Manhole
14               413.148930 6.000070   0.000000   0.000000   0.000000  
; New Manhole
16               343.000000 6.000000   0.000000   1000.000000 0.000000  
; New Manhole
18               293.000000 6.000000   0.000000   1000.000000 0.000000  
; New Manhole
24               341.000000 6.000000   0.000000   1000.000000 0.000000  
; New Manhole
26               388.000000 6.000000   0.000000   1000.000000 0.000000  
; New Manhole
28               352.000000 6.000000   0.000000   1000.000000 0.000000  
; New Manhole
30               280.000000 6.000000   0.000000   1000.000000 0.000000  
; New Manhole
32               356.000000 6.000000   0.000000   1000.000000 0.000000  
; New Manhole
34               308.000000 6.000000   0.000000   1000.000000 0.000000  
; New Manhole
36               316.000000 6.000000   0.000000   1000.000000 0.000000  
; New Manhole
40               320.000000 6.000000   0.000000   1000.000000 0.000000  
; New Manhole
42               306.000000 6.000000   0.000000   1000.000000 0.000000  
; New Manhole
44               324.000000 6.000000   0.000000   1000.000000 0.000000  
; WC01
5167             254.850000 9.650000   0.000000   0.000000   0.000000  
; TR21
7008             391.390000 9.950000   0.000000   0.000000   0.000000  
; TR20
7009             398.440000 8.669990   0.000000   0.000000   0.000000  
; TR17
7010             413.860000 7.039990   0.000000   0.000000   0.000000  
; TR11
7011             429.830000 8.879990   0.000000   0.000000   0.000000  
; TR02
7012             425.890000 9.150010   0.000000   0.000000   0.000000  
; TR30
7013             366.750000 10.820010  0.000000   0.000000   0.000000  
; MP01
7021             314.940000 6.010000   0.000000   0.000000   0.000000  
; MP13
7022             320.730000 5.140000   0.000000   0.000000   0.000000  
; TR07
7098             381.510000 6.889990   0.000000   0.000000   0.000000  
; MP04
7208             296.460000 8.300000   0.000000   0.000000   0.000000  
; MP08
7209             291.300000 12.400000  0.000000   0.000000   0.000000  
; MP15
7210             298.920000 9.100000   0.000000   0.000000   0.000000  
; MP09
9080             288.900000 4.650000   0.000000   0.000000   0.000000  
; MP07
9082             293.150000 10.030000  0.000000   0.000000   0.000000  
; MP06
9083             293.920000 7.850000   0.000000   0.000000   0.000000  
; MP05
9084             295.330000 6.350000   0.000000   0.000000   0.000000  
; MP03
9087             306.600000 5.750000   0.000000   0.000000   0.000000  
; MP11
9089             307.810000 5.450000   0.000000   0.000000   0.000000  
; MP12
9090             307.930000 6.560000   0.000000   0.000000   0.000000  
; MP20
9093             301.970000 8.250000   0.000000   0.000000   0.000000  
; MP18
9094             303.620000 8.900000   0.000000   0.000000   0.000000  
; MP17
9096             315.490000 6.850000   0.000000   0.000000   0.000000  
; MP16
9097             323.100000 6.290000   0.000000   0.000000   0.000000  
; MP14
9098             314.140000 6.400000   0.000000   0.000000   0.000000  
; TR27
9100             337.900000 15.200000  0.000000   0.000000   0.000000  
; TR31
9101             354.120000 6.080000   0.000000   0.000000   0.000000  
; TR29
9102             376.330000 5.110000   0.000000   0.000000   0.000000  
; TR28
9103             380.250000 8.510000   0.000000   0.000000   0.000000  
; TR25
9104             344.950000 14.380000  0.000000   0.000000   0.000000  
; TR24
9105             354.080000 11.660000  0.000000   0.000000   0.000000  
; TR23
9106             372.360000 13.470000  0.000000   0.000000   0.000000  
; TR22
9107             375.080000 13.170000  0.000000   0.000000   0.000000  
; TR19
9108             410.860000 11.090000  0.000000   0.000000   0.000000  
; TR18
9109             412.580000 18.160000  0.000000   0.000000   0.000000  
; TR16
9110             423.820000 8.760000   0.000000   0.000000   0.000000  
; TR09
9111             368.330000 14.570000  0.000000   0.000000   0.000000  
; TR15
9112             396.620000 8.600000   0.000000   0.000000   0.000000  
; TR14
9113             418.780000 11.550000  0.000000   0.000000   0.000000  
; TR13
9114             419.410000 15.270000  0.000000   0.000000   0.000000  
; TR12
9115             428.420000 8.490000   0.000000   0.000000   0.000000  
; TR10
9116             431.400000 6.490000   0.000000   0.000000   0.000000  
; TR08
9117             378.740000 5.330000   0.000000   0.000000   0.000000  
; TR06
9118             403.220000 5.700000   0.000000   0.000000   0.000000  
; TR05
9119             418.270000 10.590000  0.000000   0.000000   0.000000  
; TR04
9120             423.530000 8.530000   0.000000   0.000000   0.000000  
; TR03
9121             425.090000 11.700000  0.000000   0.000000   0.000000  
; TR01
9122             427.090000 6.400000   0.000000   0.000000   0.000000  
; TR26
9123             342.320000 10.350000  0.000000   0.000000   0.000000  

[OUTFALLS]
;;Name           Elevation  Type       Stage Data       Gated    Route To        
;;-------------- ---------- ---------- ---------------- -------- ----------------
; WC02
5166             254.630000 FREE                        NO                       

[STORAGE]
;;Name           Elev.    MaxDepth   InitDepth  Shape      Curve Name/Params            N/A      Fevap    Psi      Ksat     IMD     
;;-------------- -------- ---------- ----------- ---------- ---------------------------- -------- --------          -------- --------
; TriSprings
7014             329.360000 16.200000  5.000000   FUNCTIONAL 0.000000  0.000000  28.274334 0.000000 0.000000
; Manchester Lakes
7023             278.770000 15.300000  7.000000   FUNCTIONAL 0.000000  0.000000  28.274334 0.000000 0.000000

[CONDUITS]
;;Name           From Node        To Node          Length     Roughness  InOffset   OutOffset  InitFlow   MaxFlow   
;;-------------- ---------------- ---------------- ---------- ---------- ---------- ---------- ---------- ----------
; GPS
0                5167             5166             25.048969  0.013000   0.000000   0.000000   0.000000   0.000000  
; DIG
1                9122             7012             156.742031 0.013000   0.000000   0.100000   0.000000   0.000000  
; DIG
10               7011             9115             228.343887 0.013000   0.000000   0.150000   0.000000   0.000000  
; DIG
11               9115             9114             178.038209 0.013000   0.000000   0.140000   0.000000   0.000000  
; DIG
12               9114             9113             78.230545  0.013000   0.000000   0.170000   0.000000   0.000000  
; DIG
13               12               9112             247.862457 0.013000   0.000000   0.200000   0.000000   0.000000  
; DIG
14               9112             9111             378.760830 0.013000   0.000000   9.610000   0.000000   0.000000  
; DIG
15               9111             7013             348.874324 0.013000   0.000000   0.160000   0.000000   0.000000  
; DIG
16               9103             9102             255.158648 0.013000   0.000000   0.050000   0.000000   0.000000  
; DIG
17               9102             7013             79.189269  0.013000   0.000000   0.880000   0.000000   0.000000  
; DIG
18               7013             9101             380.508184 0.013000   0.000000   0.200000   0.000000   0.000000  
; DIG
19               9101             9100             159.343151 0.013000   0.000000   0.200000   0.000000   0.000000  
; DIG
2                7012             9121             124.706763 0.013000   0.000000   0.200000   0.000000   0.000000  
; DIG
20               9110             7010             166.179755 0.013000   0.000000   0.100000   0.000000   0.000000  
; DIG
21               7010             14               136.837095 0.013000   0.000000   0.000000   0.000000   0.000000  
; DIG
22               9109             9108             350.000272 0.013000   0.000000   0.130000   0.000000   0.000000  
; DIG
23               9108             7009             236.861826 0.013000   0.000000   0.160000   0.000000   0.000000  
; DIG
24               7009             9112             277.009765 0.013000   0.000000   0.630000   0.000000   0.000000  
; DIG
25               7008             9107             204.921224 0.013000   0.000000   0.430000   0.000000   0.000000  
; DIG
26               9107             9106             74.578984  0.013000   0.000000   1.310000   0.000000   0.000000  
; DIG
27               9106             9105             177.903085 0.013000   0.000000   0.360000   0.000000   0.000000  
; DIG
28               9105             9104             90.065455  0.013000   0.000000   0.150000   0.000000   0.000000  
; DIG
29               9104             9123             117.455755 0.013000   0.000000   0.339300   0.000000   0.000000  
; DIG
3                9121             9120             304.614223 0.013000   0.000000   0.140000   0.000000   0.000000  
; DIG
30               9123             9100             53.350008  0.013000   0.000000   0.150000   0.000000   0.000000  
; DIG
31               9100             7014             120.903569 0.013000   0.000000   0.000000   0.000000   0.000000  
; GPS
32               7021             10050            388.467331 0.013000   0.000000   0.160000   0.000000   0.000000  
; DIG
33               10050            9087             261.406160 0.013000   0.000000   0.050000   0.000000   0.000000  
; DIG
34               9084             9083             293.301827 0.013000   0.000000   0.050000   0.000000   0.000000  
; DIG
35               9083             9082             140.816254 0.013000   0.000000   0.050000   0.000000   0.000000  
; DIG
36               9080             7023             63.817449  0.013000   0.000000   0.000000   0.000000   0.000000  
; DIG
37               9089             9084             413.195495 0.013000   0.000000   0.600000   0.000000   0.000000  
; DIG
38               9090             9083             342.523648 0.013000   0.000000   0.950000   0.000000   0.000000  
; DIG
39               10053            9094             110.476249 0.013000   0.000000   0.050000   0.000000   0.000000  
; DIG
4                9120             9119             82.698531  0.013000   0.000000   0.320000   0.000000   0.000000  
; DIG
40               9094             9093             212.033114 0.013000   0.000000   0.050000   0.000000   0.000000  
; DIG
41               9097             9096             372.783240 0.013000   0.000000   0.100000   0.000000   0.000000  
; DIG
42               9096             9094             180.304905 0.013000   0.000000   0.050000   0.000000   0.000000  
; DIG
43               7022             9098             235.099761 0.013000   0.000000   0.050000   0.000000   0.000000  
; DIG
44               10116            10115            208.436003 0.013000   0.000000   0.100000   0.000000   0.000000  
; DIG
45               10115            9089             194.251790 0.013000   0.000000   0.310000   0.000000   0.000000  
; DIG
46               10120            10119            190.257453 0.013000   0.000000   0.100000   0.000000   0.000000  
; GPS
47               10051            7208             54.886244  0.013000   0.000000   0.300000   0.000000   0.000000  
; GPS
48               9087             7208             330.671537 0.013000   0.000000   1.500000   0.000000   0.000000  
; GPS
49               7208             9084             333.436204 0.013000   0.000000   0.100000   0.000000   0.000000  
; DIG
5                10               9118             216.701463 0.013000   0.000000   0.500000   0.000000   0.000000  
; DIG
50               9082             7209             111.583001 0.013000   0.000000   0.000000   0.000000   0.000000  
; DIG
51               10052            7209             288.902801 0.013000   0.000000   0.000000   0.000000   0.000000  
; DIG
52               7209             9080             132.180018 0.013000   0.000000   0.050000   0.000000   0.000000  
; DIG
53               7210             7209             304.603247 0.013000   0.000000   0.050000   0.000000   0.000000  
; DIG
54               9098             7210             319.987891 0.013000   0.000000   0.050000   0.000000   0.000000  
; DIG
55               9093             7210             268.593278 0.013000   0.000000   0.100000   0.000000   0.000000  
; DIG
56               10121            10118            78.335219  0.013000   0.000000   0.100000   0.000000   0.000000  
; DIG
57               10119            10118            292.693136 0.013000   0.000000   0.100000   0.000000   0.000000  
; DIG
58               10118            10117            315.599906 0.013000   0.000000   0.100000   0.000000   0.000000  
; DIG
59               10117            9090             370.853477 0.013000   0.000000   0.130000   0.000000   0.000000  
; DIG
6                9118             7098             337.304469 0.013000   0.000000   0.160000   0.000000   0.000000  
; DIG
60               10124            10123            217.172805 0.013000   0.000000   0.100000   0.000000   0.000000  
; DIG
61               10123            10122            268.693346 0.013000   0.000000   0.100000   0.000000   0.000000  
; DIG
62               10122            10052            373.596759 0.013000   0.000000   1.279200   0.000000   0.000000  
; DIG
63               10128            10127            361.554077 0.013000   0.000000   0.100000   0.000000   0.000000  
; DIG
64               10127            9097             193.387350 0.013000   0.000000   0.060000   0.000000   0.000000  
; DIG
65               10126            10125            209.152409 0.013000   0.000000   0.100000   0.000000   0.000000  
; DIG
66               10125            10122            190.096011 0.013000   0.000000   0.100000   0.000000   0.000000  
; DIG
67               9119             10               169.322245 0.013000   0.000000   0.000000   0.000000   0.000000  
; DIG
68               9113             12               120.753432 0.013000   0.000000   0.000000   0.000000   0.000000  
; DIG
69               14               9109             80.618386  0.013000   0.000000   0.150000   0.000000   0.000000  
; DIG
7                7098             9117             90.050705  0.013000   0.000000   0.160000   0.000000   0.000000  
73               24               26               1416.532931 0.010000   0.000000   0.000000   0.000000   0.000000  
75               26               28               1746.097997 0.010000   0.000000   0.000000   0.000000   0.000000  
77               28               30               2278.000378 0.010000   0.000000   0.000000   0.000000   0.000000  
79               30               32               2308.969578 0.010000   0.000000   0.000000   0.000000   0.000000  
; DIG
8                9117             9111             291.964211 0.010000   0.000000   6.530000   0.000000   0.000000  
81               32               34               1764.091851 0.010000   0.000000   0.000000   0.000000   0.000000  
83               34               36               467.274751 0.010000   0.000000   0.000000   0.000000   0.000000  
85               36               40               189.569000 0.010000   0.000000   0.000000   0.000000   0.000000  
; DIG
9                9116             7011             218.448493 0.010000   0.000000   0.070000   0.000000   0.000000  
91               18               40               2408.226491 0.010000   0.000000   0.000000   0.000000   0.000000  
93               16               24               475.571700 0.010000   0.000000   0.000000   0.000000   0.000000  
95               42               44               1778.007000 0.010000   0.000000   0.000000   0.000000   0.000000  
97               44               5167             2119.223000 0.010000   0.000000   7.150000   0.000000   0.000000  
; New Pipe
99               40               42               2675.670000 0.010000   0.000000   0.000000   0.000000   0.000000  

[PUMPS]
;;Name           From Node        To Node          Pump Curve       Status   Sartup Shutoff 
;;-------------- ---------------- ---------------- ---------------- ------ -------- --------
MANLAKES1        7023             18               PC_MANLAKES1     ON       0.000000 0.000000
MANLAKES2        7023             18               PC_MANLAKES2     OFF      0.000000 0.000000
TRISPRINGS1      7014             16               PC_TRISPRINGS1   ON       0.000000 0.000000
TRISPRINGS2      7014             16               PC_TRISPRINGS2   ON       0.000000 0.000000

[XSECTIONS]
;;Link           Shape        Geom1            Geom2      Geom3      Geom4      Barrels    Culvert   
;;-------------- ------------ ---------------- ---------- ---------- ---------- ---------- ----------
0                CIRCULAR     1.000000         0.000000   0.000000   0.000000   1          0         
1                CIRCULAR     0.666667         0.000000   0.000000   0.000000   1          0         
10               CIRCULAR     0.666667         0.000000   0.000000   0.000000   1          0         
11               CIRCULAR     0.666667         0.000000   0.000000   0.000000   1          0         
12               CIRCULAR     0.666667         0.000000   0.000000   0.000000   1          0         
13               CIRCULAR     0.666667         0.000000   0.000000   0.000000   1          0         
14               CIRCULAR     0.666667         0.000000   0.000000   0.000000   1          0         
15               CIRCULAR     0.666667         0.000000   0.000000   0.000000   1          0         
16               CIRCULAR     0.666667         0.000000   0.000000   0.000000   1          0         
17               CIRCULAR     0.666667         0.000000   0.000000   0.000000   1          0         
18               CIRCULAR     0.666667         0.000000   0.000000   0.000000   1          0         
19               CIRCULAR     0.666667         0.000000   0.000000   0.000000   1          0         
2                CIRCULAR     0.666667         0.000000   0.000000   0.000000   1          0         
20               CIRCULAR     0.666667         0.000000   0.000000   0.000000   1          0         
21               CIRCULAR     0.666667         0.000000   0.000000   0.000000   1          0         
22               CIRCULAR     0.666667         0.000000   0.000000   0.000000   1          0         
23               CIRCULAR     0.666667         0.000000   0.000000   0.000000   1          0         
24               CIRCULAR     0.666667         0.000000   0.000000   0.000000   1          0         
25               CIRCULAR     0.666667         0.000000   0.000000   0.000000   1          0         
26               CIRCULAR     0.666667         0.000000   0.000000   0.000000   1          0         
27               CIRCULAR     0.666667         0.000000   0.000000   0.000000   1          0         
28               CIRCULAR     0.666667         0.000000   0.000000   0.000000   1          0         
29               CIRCULAR     0.666667         0.000000   0.000000   0.000000   1          0         
3                CIRCULAR     0.666667         0.000000   0.000000   0.000000   1          0         
30               CIRCULAR     0.666667         0.000000   0.000000   0.000000   1          0         
31               CIRCULAR     0.666667         0.000000   0.000000   0.000000   1          0         
32               CIRCULAR     0.666667         0.000000   0.000000   0.000000   1          0         
33               CIRCULAR     0.666667         0.000000   0.000000   0.000000   1          0         
34               CIRCULAR     0.666667         0.000000   0.000000   0.000000   1          0         
35               CIRCULAR     0.666667         0.000000   0.000000   0.000000   1          0         
36               CIRCULAR     0.666667         0.000000   0.000000   0.000000   1          0         
37               CIRCULAR     0.666667         0.000000   0.000000   0.000000   1          0         
38               CIRCULAR     0.666667         0.000000   0.000000   0.000000   1          0         
39               CIRCULAR     0.666667         0.000000   0.000000   0.000000   1          0         
4                CIRCULAR     0.666667         0.000000   0.000000   0.000000   1          0         
40               CIRCULAR     0.666667         0.000000   0.000000   0.000000   1          0         
41               CIRCULAR     0.666667         0.000000   0.000000   0.000000   1          0         
42               CIRCULAR     0.666667         0.000000   0.000000   0.000000   1          0         
43               CIRCULAR     0.666667         0.000000   0.000000   0.000000   1          0         
44               CIRCULAR     0.666667         0.000000   0.000000   0.000000   1          0         
45               CIRCULAR     0.666667         0.000000   0.000000   0.000000   1          0         
46               CIRCULAR     0.666667         0.000000   0.000000   0.000000   1          0         
47               CIRCULAR     0.666667         0.000000   0.000000   0.000000   1          0         
48               CIRCULAR     0.666667         0.000000   0.000000   0.000000   1          0         
49               CIRCULAR     0.666667         0.000000   0.000000   0.000000   1          0         
5                CIRCULAR     0.666667         0.000000   0.000000   0.000000   1          0         
50               CIRCULAR     0.666667         0.000000   0.000000   0.000000   1          0         
51               CIRCULAR     0.666667         0.000000   0.000000   0.000000   1          0         
52               CIRCULAR     0.666667         0.000000   0.000000   0.000000   1          0         
53               CIRCULAR     0.666667         0.000000   0.000000   0.000000   1          0         
54               CIRCULAR     0.666667         0.000000   0.000000   0.000000   1          0         
55               CIRCULAR     0.666667         0.000000   0.000000   0.000000   1          0         
56               CIRCULAR     0.666667         0.000000   0.000000   0.000000   1          0         
57               CIRCULAR     0.666667         0.000000   0.000000   0.000000   1          0         
58               CIRCULAR     0.666667         0.000000   0.000000   0.000000   1          0         
59               CIRCULAR     0.666667         0.000000   0.000000   0.000000   1          0         
6                CIRCULAR     0.666667         0.000000   0.000000   0.000000   1          0         
60               CIRCULAR     0.666667         0.000000   0.000000   0.000000   1          0         
61               CIRCULAR     0.666667         0.000000   0.000000   0.000000   1          0         
62               CIRCULAR     0.666667         0.000000   0.000000   0.000000   1          0         
63               CIRCULAR     0.666667         0.000000   0.000000   0.000000   1          0         
64               CIRCULAR     0.666667         0.000000   0.000000   0.000000   1          0         
65               CIRCULAR     0.666667         0.000000   0.000000   0.000000   1          0         
66               CIRCULAR     0.666667         0.000000   0.000000   0.000000   1          0         
67               CIRCULAR     0.666667         0.000000   0.000000   0.000000   1          0         
68               CIRCULAR     0.666667         0.000000   0.000000   0.000000   1          0         
69               CIRCULAR     0.666667         0.000000   0.000000   0.000000   1          0         
7                CIRCULAR     0.666667         0.000000   0.000000   0.000000   1          0         
73               FORCE_MAIN   0.500000         120.000000 0.000000   0.000000   1          0         
75               FORCE_MAIN   0.500000         120.000000 0.000000   0.000000   1          0         
77               FORCE_MAIN   0.500000         120.000000 0.000000   0.000000   1          0         
79               FORCE_MAIN   0.500000         120.000000 0.000000   0.000000   1          0         
8                FORCE_MAIN   0.666667         0.013000   0.000000   0.000000   1          0         
81               FORCE_MAIN   0.500000         120.000000 0.000000   0.000000   1          0         
83               FORCE_MAIN   0.500000         120.000000 0.000000   0.000000   1          0         
85               FORCE_MAIN   0.500000         120.000000 0.000000   0.000000   1          0         
9                FORCE_MAIN   0.666667         0.013000   0.000000   0.000000   1          0         
91               FORCE_MAIN   0.333333         120.000000 0.000000   0.000000   1          0         
93               FORCE_MAIN   0.500000         120.000000 0.000000   0.000000   1          0         
95               FORCE_MAIN   0.500000         120.000000 0.000000   0.000000   1          0         
97               FORCE_MAIN   0.500000         120.000000 0.000000   0.000000   1          0         
99               FORCE_MAIN   0.500000         120.000000 0.000000   0.000000   1          0         

[LOSSES]
;;Link           Kentry     Kexit      Kavg       Flap Gate  Seepage   
;;-------------- ---------- ---------- ---------- ---------- ----------
0                0.000000   0.000000   0.000000   NO         0.000000  
1                0.000000   0.000000   0.000000   NO         0.000000  
10               0.000000   0.000000   0.000000   NO         0.000000  
11               0.000000   0.000000   0.000000   NO         0.000000  
12               0.000000   0.000000   0.000000   NO         0.000000  
13               0.000000   0.000000   0.000000   NO         0.000000  
14               0.000000   0.000000   0.000000   NO         0.000000  
15               0.000000   0.000000   0.000000   NO         0.000000  
16               0.000000   0.000000   0.000000   NO         0.000000  
17               0.000000   0.000000   0.000000   NO         0.000000  
18               0.000000   0.000000   0.000000   NO         0.000000  
19               0.000000   0.000000   0.000000   NO         0.000000  
2                0.000000   0.000000   0.000000   NO         0.000000  
20               0.000000   0.000000   0.000000   NO         0.000000  
21               0.000000   0.000000   0.000000   NO         0.000000  
22               0.000000   0.000000   0.000000   NO         0.000000  
23               0.000000   0.000000   0.000000   NO         0.000000  
24               0.000000   0.000000   0.000000   NO         0.000000  
25               0.000000   0.000000   0.000000   NO         0.000000  
26               0.000000   0.000000   0.000000   NO         0.000000  
27               0.000000   0.000000   0.000000   NO         0.000000  
28               0.000000   0.000000   0.000000   NO         0.000000  
29               0.000000   0.000000   0.000000   NO         0.000000  
3                0.000000   0.000000   0.000000   NO         0.000000  
30               0.000000   0.000000   0.000000   NO         0.000000  