[TITLE]
;;Project Title/Notes

[OPTIONS]
;;Option             Value
FLOW_UNITS           CFS
INFILTRATION         GREEN_AMPT
FLOW_ROUTING         DYNWAVE
LINK_OFFSETS         DEPTH
MIN_SLOPE            0
ALLOW_PONDING        YES
SKIP_STEADY_STATE    NO

START_DATE           05/08/2014
START_TIME           00:00:00
REPORT_START_DATE    05/08/2014
REPORT_START_TIME    00:00:00
END_DATE             05/08/2014
END_TIME             12:00:00
SWEEP_START          01/01
SWEEP_END            12/31
DRY_DAYS             0
REPORT_STEP          00:15:00
WET_STEP             00:05:00
DRY_STEP             01:00:00
ROUTING_STEP         0:00:30 
RULE_STEP            00:00:00

INERTIAL_DAMPING     PARTIAL
NORMAL_FLOW_LIMITED  BOTH
FORCE_MAIN_EQUATION  H-W
VARIABLE_STEP        0.75
LENGTHENING_STEP     1
MIN_SURFAREA         12.566
MAX_TRIALS           8
HEAD_TOLERANCE       0.005
SYS_FLOW_TOL         5
LAT_FLOW_TOL         5
MINIMUM_STEP         0.5
THREADS              1

[EVAPORATION]
;;Data Source    Parameters
;;-------------- ----------------
CONSTANT         0.0
DRY_ONLY         NO

[RAINGAGES]
;;Name           Format    Interval SCF      Source    
;;-------------- --------- ------ ------ ----------
;2yrTSARP
2250             VOLUME    1:00     1.0      TIMESERIES MyStorm         

[SUBCATCHMENTS]
;;Name           Rain Gage        Outlet           Area     %Imperv  Width    %Slope   CurbLen  SnowPack        
;;-------------- ---------------- ---------------- -------- -------- -------- -------- -------- ----------------
S_1018           2250             1018             36.942693 83.730000 715.707246 3.190271 0.000000                 
S_5009           2250             C040             1.127190 80.390000 276.379432 5.768028 0.000000                 
S_5013           2250             5013             8.281052 66.190000 338.852525 5.022627 0.000000                 
S_5023           2250             5023             0.404531 85.300000 60.000000 3.400000 0.000000                 
S_5027           2250             5027             0.540616 73.910000 25.000000 3.400000 0.000000                 
S_5029           2250             5029             1.105820 63.790000 434.663854 3.446816 0.000000                 
S_5030           2250             5030             1.887051 60.000000 176.000000 3.400000 0.000000                 
S_5057           2250             5057             0.756105 90.000000 50.000000 3.200000 0.000000                 
S_5058           2250             5058             4.816398 57.470000 265.000000 3.400000 0.000000                 
S_5225           2250             5225             4.345293 52.960000 245.450672 3.086984 0.000000                 
S_5665           2250             5665             6.029504 87.000000 289.153192 3.333526 0.000000                 
S_5671           2250             5671             4.576206 81.270000 251.890821 2.268671 0.000000                 
S_5763           2250             5763             6.801754 83.410000 460.000000 2.900000 0.000000                 
S_5765           2250             5765             2.899853 82.010000 224.000000 2.900000 0.000000                 
S_5770           2250             5770             4.521363 83.430000 240.000000 5.500000 0.000000                 
S_5771           2250             5771             2.911182 82.870000 188.000000 4.000000 0.000000                 
S_5805           2250             W1400105_sta0157 6.138871 58.660000 291.754895 1.960000 0.000000                 
S_5817           2250             5817             5.198969 50.610000 290.000000 3.900000 0.000000                 
S_5825           2250             5825             3.204330 52.420000 210.773297 2.847480 0.000000                 
S_5826           2250             5826             2.487742 57.280000 185.735330 3.901110 0.000000                 
S_5839           2250             5839             0.812417 87.230000 86.466499 0.609355 0.000000                 
S_5854           2250             5854             1.794662 57.680000 157.761694 2.928897 0.000000                 
S_5860           2250             5860             5.482696 50.960000 275.726468 4.435164 0.000000                 
S_5861           2250             5861             4.212265 56.090000 241.664866 4.622351 0.000000                 
S_5874           2250             5874             4.290478 50.710000 243.892239 9.181684 0.000000                 
S_5876           2250             5876             8.121437 51.010000 335.563016 5.302231 0.000000                 
S_5879           2250             5879             4.731824 50.120000 350.000000 3.300000 0.000000                 
S_6013           2250             6013             1.644594 61.710000 151.026197 1.431955 0.000000                 
S_6016           2250             6016             72.411058 54.880000 1000.000000 1.000000 0.000000                 
S_10008          2250             10008_2D         0.240513 89.890000 58.000000 3.000000 0.000000                 
S_10009          2250             10009_2D         6.839904 41.190000 425.181953 3.164820 0.000000                 
S_10010          2250             10010_2D         2.883794 61.920000 130.000000 3.200000 0.000000                 
S_10011          2250             10011            0.896606 60.620000 133.000000 3.400000 0.000000                 
S_10033          2250             10033            2.762017 81.540000 195.695650 2.661326 0.000000                 
S_10034          2250             10034            0.410437 86.160000 75.398249 3.852593 0.000000                 
S_10035          2250             10035            1.181058 85.520000 127.965908 1.786634 0.000000                 
S_10036          2250             10036            0.692312 85.440000 97.954047 3.799650 0.000000                 
S_10044          2250             10044            0.969857 58.980000 118.000000 3.400000 0.000000                 
S_10048          2250             10048            0.087154 90.000000 176.549905 3.426423 0.000000                 
S_10049          2250             10049            0.503840 73.650000 70.000000 3.400000 0.000000                 
S_10051          2250             10051            0.660306 59.060000 168.000000 3.200000 0.000000                 
S_10052          2250             10052            0.579742 77.280000 70.000000 3.200000 0.000000                 
S_10053          2250             10053            0.538567 63.170000 160.000000 3.200000 0.000000                 
S_10054          2250             10054            1.022805 63.590000 289.000000 3.200000 0.000000                 
S_10055          2250             10055_2D         0.176909 72.760000 85.000000 3.200000 0.000000                 
S_10056          2250             10056_2D         0.643762 55.950000 85.000000 3.200000 0.000000                 
S_10057          2250             10057            0.208117 55.420000 52.000000 3.200000 0.000000                 
S_10058          2250             10058            0.114136 57.010000 85.000000 3.200000 0.000000                 
S_10059          2250             10059_2D         0.284275 89.260000 60.000000 3.000000 0.000000                 
S_10115          2250             10115            46.246292 45.480000 800.767469 5.595175 0.000000                 
S_10121          2250             10121            4.894055 50.710000 260.496155 8.570513 0.000000                 
S_10245          2250             10245            7.156259 85.040000 315.127637 3.331779 0.000000                 
S_10247          2250             10247            7.765767 83.600000 400.000000 4.000000 0.000000                 
S_10258          2250             C028_2D          1.918821 80.040000 219.126842 1.924995 0.000000                 
S_10260          2250             10260            0.187937 89.820000 60.000000 3.000000 0.000000                 
S_10261          2250             10261            0.117658 89.520000 56.000000 3.000000 0.000000                 
S_10262          2250             10262            0.768796 90.000000 103.260091 12.000000 0.000000                 
S_10263          2250             10263            0.133028 90.000000 42.943274 1.402285 0.000000                 
S_10264          2250             10264            3.083027 89.460000 206.755036 10.428553 0.000000                 
S_10265          2250             10265            3.813374 89.870000 229.933758 10.897144 0.000000                 
S_10266          2250             10266            1.273215 89.980000 132.856723 12.000000 0.000000                 
S_10289          2250             10289            0.089049 90.000000 35.128883 1.402285 0.000000                 
S_10290          2250             10290            0.077871 89.050000 55.000000 3.000000 0.000000                 
S_20104          2250             20104            3.493057 55.000000 208.913064 0.462848 0.000000                 
S_20107          2250             20107_2D         8.672296 84.870000 769.590220 12.000000 0.000000                 
S_20113          2250             20113_2D         8.401821 84.990000 769.590220 12.000000 0.000000                 
S_20117          2250             20117            11.255306 51.750000 514.542161 0.181792 0.000000                 
S_20121          2250             20121_2D         4.839630 84.870000 769.590220 12.000000 0.000000                 
S_20128          2250             20128_2D         6.699192 85.000000 769.590220 12.000000 0.000000                 
S_20132          2250             20132            5.998212 52.660000 329.009295 0.828064 0.000000                 
S_20137          2250             20137            6.816746 53.630000 258.058178 0.261052 0.000000                 
S_20141          2250             20141            10.459932 79.610000 384.589940 0.212328 0.000000                 
S_30016          2250             30016            16.244957 51.520000 540.000000 1.000000 0.000000                 
S_30021          2250             30021            10.346020 53.810000 550.000000 1.000000 0.000000                 
S_30023          2250             30023            7.329513 60.640000 300.000000 1.000000 0.000000                 
S_30029          2250             30029            129.378493 64.770000 1265.000000 1.000000 0.000000                 
S_30032          2250             30032            1.071927 85.670000 120.000000 3.300000 0.000000                 
S_30033          2250             30033            0.933167 69.530000 75.000000 8.600000 0.000000                 
S_30034          2250             30034            0.778586 86.590000 175.000000 8.600000 0.000000                 
S_30035          2250             30035            0.697866 87.910000 70.000000 8.600000 0.000000                 
S_30036          2250             30036            0.434712 89.350000 25.000000 3.400000 0.000000                 
S_30037          2250             30037            2.669937 52.050000 290.000000 3.300000 0.000000                 
S_35021          2250             5029             2.462548 63.790000 135.000000 3.400000 0.000000                 
S_35029          2250             10011            0.145042 60.620000 176.549905 3.426423 0.000000                 
S_3143189        2250             3143189          4.903105 61.150000 260.735569 4.051525 0.000000                 
S_3143195        2250             3143195          2.675644 51.290000 192.624883 5.471118 0.000000                 
S_3143196        2250             3143196          1.855957 86.590000 160.419929 4.503730 0.000000                 
S_3143206        2250             3143206          2.721659 85.650000 194.273424 1.762885 0.000000                 
S_3143209        2250             3143209          2.607173 85.710000 190.125273 1.968024 0.000000                 
S_3143214        2250             3143214          3.670188 77.920000 257.498154 2.531798 0.000000                 
S_3143216        2250             3143216          3.019771 76.170000 204.631650 1.948733 0.000000                 
S_3143228        2250             3143228          9.848223 67.430000 602.825767 0.177925 0.000000                 
S_3144582        2250             3144582          18.055202 53.270000 500.343291 3.475243 0.000000                 
S_3144583        2250             3144583          1.039163 66.420000 120.026491 8.325565 0.000000                 
S_3144584        2250             3144584          5.204774 53.730000 268.645581 6.312599 0.000000                 
S_3144586        2250             3144586          3.887164 49.640000 232.154232 5.317151 0.000000                 
S_3144598        2250             3144598          5.986423 55.760000 288.096307 5.708406 0.000000                 
S_3144600        2250             3144600          7.527299 60.530000 323.057846 5.036315 0.000000                 
S_3144603        2250             3144603          14.526272 49.650000 482.209615 8.649939 0.000000                 
S_3144610        2250             3144610          3.856451 63.550000 231.226629 9.373703 0.000000                 
S_3144613        2250             3144613          12.702012 68.070000 419.667549 8.815902 0.000000                 
S_3144627        2250             3144627          1.369108 68.350000 137.775203 3.700541 0.000000                 
S_3144628        2250             3144628          5.076111 64.270000 265.295657 2.985076 0.000000                 
S_3144631        2250             3144631          2.382444 50.520000 181.735685 3.186719 0.000000                 
S_3144642        2250             3144642          3.459577 53.870000 219.031907 4.249181 0.000000                 
S_3144643        2250             3144643          5.212021 50.340000 268.826166 3.641499 0.000000                 
S_3144647        2250             3144647          2.407271 48.420000 182.686889 6.654590 0.000000                 
S_3144648        2250             3144648          5.732498 40.480000 281.917753 3.325817 0.000000                 
S_3144912        2250             3144912          3.462073 77.680000 219.095202 3.218890 0.000000                 
S_3144913        2250             3144913          3.284543 85.420000 213.420937 4.929487 0.000000                 
S_3144914        2250             3144914          1.753982 86.180000 155.949551 3.569527 0.000000                 
S_3144915        2250             3144915          1.287042 85.510000 133.585281 4.440138 0.000000                 
S_3144916        2250             3144916          0.716256 86.060000 99.638194 3.642734 0.000000                 
S_3144917        2250             3144917          1.613139 86.110000 149.550035 4.383604 0.000000                 
S_3144931        2250             3144931          1.682049 64.550000 152.715223 5.914921 0.000000                 
S_3144932        2250             3144932          2.385057 67.200000 182.002523 4.199363 0.000000                 
S_3144962        2250             3144962          19.500936 42.810000 519.993333 10.985763 0.000000                 
S_3146012        2250             C019_2D          1.736298 73.480000 219.158478 2.521844 0.000000                 
S_3146014        2250             C036A_2D         1.573208 80.060000 227.142902 2.379552 0.000000                 
S_3146601        2250             3146601          2.180408 57.460000 273.444332 0.353405 0.000000                 
S_3146604        2250             3146604          1.131749 60.670000 138.676863 0.454392 0.000000                 
S_3146605        2250             3146605          1.076668 55.280000 131.743737 0.647529 0.000000                 
S_3146608        2250             3146608          0.432255 84.280000 116.151749 3.112687 0.000000                 
S_3146737        2250             3146737          0.184402 71.830000 57.203860 3.183684 0.000000                 
S_3146738        2250             3146738          0.216250 65.430000 60.157473 2.599433 0.000000                 
S_3146767        2250             3146767          5.592827 49.860000 300.048571 0.116002 0.000000                 
S_3146769        2250             3146769          4.579733 51.960000 256.029797 0.440671 0.000000                 
S_3175098        2250             3175098          1.192613 87.210000 128.614388 4.659014 0.000000                 
S_3175100        2250             3175100          0.846880 87.630000 108.370491 2.886904 0.000000                 
S_3175104        2250             3175104          2.688519 86.790000 193.092202 4.218294 0.000000                 
S_3175109        2250             3175109          0.957605 83.050000 115.252960 5.316714 0.000000                 
S_3175112        2250             3175112          3.448935 86.450000 218.683457 7.596941 0.000000                 
S_3175113        2250             3175113          3.792191 85.970000 229.299706 2.685506 0.000000                 
S_3175115        2250             3175115          3.909486 67.750000 232.810289 2.610425 0.000000                 
S_3175121        2250             3175121          2.822030 58.070000 197.809816 2.884364 0.000000                 
S_3176094        2250             3176094          51.980532 59.800000 1600.000000 1.000000 0.000000                 
S_3176100        2250             3176100          6.845880 36.260000 590.000000 1.000000 0.000000                 
S_3176102        2250             3176102          5.300446 63.740000 271.086112 7.110577 0.000000                 
S_3176104        2250             3176104          12.237190 54.280000 411.914248 7.186021 0.000000                 
S_3176110        2250             3176110          10.379554 50.370000 379.374391 5.947997 0.000000                 
S_3176112        2250             3176112          12.409350 58.440000 414.799025 5.409517 0.000000                 
S_3176247        2250             3176247          14.620839 51.230000 450.254304 2.538714 0.000000                 
S_3176275        2250             3176275          4.236588 48.830000 242.380996 8.754997 0.000000                 
S_3177638        2250             3177638          7.902208 54.510000 331.007510 5.877547 0.000000                 
S_3177642        2250             3177642          5.183897 63.470000 268.103097 4.574849 0.000000                 
S_3177646        2250             3177646          3.152542 58.670000 209.089065 5.083571 0.000000                 
S_3177653        2250             3177653          6.756772 68.980000 306.087993 5.952140 0.000000                 
S_3177664        2250             3177664          8.320275 70.460000 339.649514 3.353283 0.000000                 
S_3177675        2250             3177675          5.031222 53.230000 264.117084 6.957664 0.000000                 
S_3177677        2250             3177677          2.753946 87.370000 195.412033 3.410029 0.000000                 
S_3177683        2250             3177683          6.736314 55.050000 305.611979 2.798687 0.000000                 
S_3178751        2250             3178751          6.568361 52.370000 301.776840 6.738257 0.000000                 
S_3178753        2250             3178753          5.583831 49.450000 278.254399 6.928001 0.000000                 
S_3178754        2250             3178754          8.622841 45.250000 345.778931 5.614385 0.000000                 
S_3178755        2250             3178755          4.011551 52.680000 235.857557 4.940889 0.000000                 
S_3178758        2250             3178758          2.974639 63.770000 203.101354 3.084546 0.000000                 
S_3178763        2250             3178763          3.543434 51.790000 221.643455 6.909635 0.000000                 
S_3178767        2250             3178767          12.285041 47.930000 412.721330 9.345943 0.000000                 
S_3178775        2250             3178775          8.379852 47.120000 340.872012 9.870085 0.000000                 
S_3178778        2250             3178778          5.838273 52.350000 284.512518 8.370005 0.000000                 
S_3178779        2250             3178779          8.881648 50.840000 350.933412 5.657153 0.000000                 
S_3178783        2250             3178783          15.610509 47.660000 465.248194 3.344142 0.000000                 
S_3178785        2250             3178785          5.630703 48.590000 279.422966 7.231321 0.000000                 
S_3178787        2250             3178787          4.874919 52.300000 259.990000 6.508099 0.000000                 
S_3178791        2250             3178791          11.372780 47.700000 397.106370 6.245359 0.000000                 
S_3178794        2250             3178794          9.642111 71.190000 365.639325 5.348227 0.000000                 
S_3218806        2250             3218806          2.559190 55.580000 188.366851 12.000000 0.000000                 
S_3218819        2250             3218819          5.272528 66.380000 270.394728 3.542812 0.000000                 
S_3218829        2250             3218829          17.241840 52.820000 487.073318 7.148195 0.000000                 
S_3218832        2250             3218832          10.962406 54.960000 389.864987 5.500226 0.000000                 
S_3218873        2250             3218873          0.295912 50.290000 75.000000 3.400000 0.000000                 
S_3219152        2250             3219152          2.109990 85.000000 171.045070 1.991901 0.000000                 
S_3219153        2250             3219153          9.122080 84.440000 355.643085 1.807502 0.000000                 
S_3221259        2250             3221259          0.271125 71.750000 70.000000 3.400000 0.000000                 
S_3234001        2250             3234001          249.358545 54.290000 3000.000000 1.000000 0.000000                 
S_3234049        2250             3234049          6.921958 51.910000 309.802653 10.370392 0.000000                 
S_3234051        2250             3234051          5.125999 55.270000 266.599073 7.003578 0.000000                 
S_3234054        2250             3234054          3.435999 51.840000 218.270937 5.306516 0.000000                 
S_3234059        2250             3234059          4.680617 52.160000 254.764350 10.545445 0.000000                 
S_3234315        2250             3234315          4.114314 78.430000 238.836929 12.000000 0.000000                 
S_3236559        2250             3236559          2.862124 52.220000 199.206795 9.096051 0.000000                 
S_3236585        2250             3236585          9.720012 50.010000 367.115285 11.065787 0.000000                 
S_3236593        2250             3236593          2.470029 56.830000 185.062238 9.116336 0.000000                 
S_3236615        2250             3236615          14.994682 47.880000 455.976614 6.152920 0.000000                 
S_3236632        2250             3236632          8.428731 82.500000 341.867142 3.820503 0.000000                 
S_4161810        2250             4161810          1.129894 86.060000 114.165074 3.286222 0.000000                 
S_4161812        2250             4161812          0.250994 68.820000 58.993776 4.451761 0.000000                 
S_4165583        2250             4165583_2D       0.148290 88.960000 55.000000 3.000000 0.000000                 
S_4165604        2250             4165604_2D       0.324159 89.880000 52.000000 3.000000 0.000000                 
S_4165605        2250             4165605_2D       0.307442 90.000000 65.243691 2.190595 0.000000                 
S_4165607        2250             4165607_2D       0.257677 90.000000 59.810742 1.682547 0.000000                 
S_4165610        2250             4165610_2D       0.045176 90.000000 24.979031 1.402285 0.000000                 
S_4165616        2250             4165616          1.271746 90.000000 132.804530 1.725532 0.000000                 
S_4165616-2      2250             4165616          0.351804 90.000000 98.949070 1.124586 0.000000                 
S_4165616-3      2250             4165616          0.363970 90.000000 100.567957 12.000000 0.000000                 
S_5708686        2250             5708686          6.470458 48.870000 299.516998 2.845818 0.000000                 
S_5708689        2250             5708689          6.847414 48.680000 308.119723 3.025893 0.000000                 
S_5788-1         2250             5788-1           0.487677 83.350000 99.982320 0.444638 0.000000                 
S_5906134        2250             5906134          1.937079 72.140000 163.883090 2.156016 0.000000                 
S_5906136        2250             5906136          1.766601 54.200000 156.526404 3.235961 0.000000                 
S_5906138        2250             5906138          4.433680 52.440000 247.951751 2.300464 0.000000                 
S_5906139        2250             5906139          5.034932 51.250000 264.222059 1.584155 0.000000                 
S_5906141        2250             5906141          1.772237 54.940000 156.747706 2.049037 0.000000                 
S_5906143        2250             5906143          4.238482 49.500000 242.409598 1.984749 0.000000                 
S_5906183        2250             5906183          3.074754 51.160000 206.486610 2.527187 0.000000                 
S_5906232        2250             5906232          5.562003 51.320000 277.705721 1.790056 0.000000                 
S_5906234        2250             5906234          5.764751 51.920000 282.728110 1.728067 0.000000                 
S_5906250        2250             5906250          4.665086 51.780000 254.328575 2.586824 0.000000                 
S_5906258        2250             5906258          3.687024 53.250000 226.102781 2.818468 0.000000                 
S_5906313        2250             5906313          3.534340 52.950000 221.361764 1.957678 0.000000                 
S_5906318        2250             5906318          5.001117 53.650000 263.328437 2.023764 0.000000                 
S_5906321        2250             5906321          3.646774 52.090000 224.872949 1.964157 0.000000                 
S_5906330        2250             5906330          3.264631 52.470000 212.770261 4.555140 0.000000                 
S_5906331        2250             5906331          3.473936 56.390000 219.474588 3.312764 0.000000                 
S_5906359        2250             5906359          3.450888 54.210000 218.746853 3.509806 0.000000                 
S_5906361        2250             5906361          3.824511 53.210000 230.295289 2.995749 0.000000                 
S_5906410        2250             5906410          4.923739 53.720000 261.293350 2.869448 0.000000                 
S_5906481        2250             5906481          3.303892 58.960000 214.037246 2.319756 0.000000                 
S_6029677        2250             6029677          0.644568 63.980000 117.476189 0.517610 0.000000                 
S_6029685        2250             6029685          1.108968 53.080000 124.003832 3.637450 0.000000                 
S_6029695        2250             6029695          1.242158 52.210000 131.229095 4.674795 0.000000                 
S_6029697        2250             6029697          2.976275 55.220000 203.135486 2.133099 0.000000                 
S_6029708        2250             6029708          2.258820 55.530000 176.981328 2.200868 0.000000                 
S_6029724        2250             6029724          6.374490 53.210000 297.286620 3.779714 0.000000                 
S_6029730        2250             6029730          1.355683 51.430000 137.119487 3.435359 0.000000                 
S_6029738        2250             6029738          1.369910 57.590000 137.825513 2.160127 0.000000                 
S_6029751        2250             6029751          1.024634 52.760000 176.549905 3.426423 0.000000                 
S_6029762        2250             6029762          1.654790 53.500000 165.000000 3.400000 0.000000                 
S_6029772        2250             6029772          14.369024 49.860000 481.245382 3.448452 0.000000                 
S_6029809        2250             6029809          4.971279 60.420000 262.537422 3.928008 0.000000                 
S_6052590        2250             6052590          4.585469 45.350000 252.138407 2.528231 0.000000                 
S_6052591        2250             6052591          1.022197 62.830000 140.712746 8.539214 0.000000                 
S_6052608        2250             6052608          5.858273 47.210000 284.999448 2.292328 0.000000                 
S_6052609        2250             6052609          1.146721 72.120000 155.191969 4.856404 0.000000                 
S_6052620        2250             6052620          7.106113 70.600000 308.546933 3.485267 0.000000                 
S_6061230        2250             6061230          2.537344 50.410000 187.555398 2.055193 0.000000                 
S_6061276        2250             6061276          5.128866 49.370000 266.677076 2.596262 0.000000                 
S_6061295        2250             6061295          4.627783 52.750000 253.317976 3.154160 0.000000                 
S_6061308        2250             6061308          3.015799 53.660000 204.496087 2.465947 0.000000                 
S_6061320        2250             6061320          1.329669 59.910000 135.798557 2.579287 0.000000                 
S_6061322        2250             6061322          4.506453 45.350000 249.956784 3.077481 0.000000                 
S_6061338        2250             6061338          1.810745 54.010000 158.463250 2.553951 0.000000                 
S_6061347        2250             6061347          2.191748 48.740000 174.337016 2.152060 0.000000                 
S_6061355        2250             6061355          2.092417 54.380000 170.313932 2.289029 0.000000                 
S_6061365        2250             6061365          1.223213 54.950000 130.221461 3.354240 0.000000                 