[TITLE]
;;Project Title/Notes

[OPTIONS]
;;Option             Value
FLOW_UNITS           GPM
INFILTRATION         HORTON
FLOW_ROUTING         DYNWAVE
LINK_OFFSETS         DEPTH
MIN_SLOPE            0
ALLOW_PONDING        NO
SKIP_STEADY_STATE    NO

START_DATE           01/01/2002
START_TIME           00:00:00
REPORT_START_DATE    01/01/2002
REPORT_START_TIME    00:00:00
END_DATE             01/04/2002
END_TIME             00:00:00
SWEEP_START          01/01
SWEEP_END            12/31
DRY_DAYS             5.000000
REPORT_STEP          00:01:00
WET_STEP             00:15:00
DRY_STEP             01:00:00
ROUTING_STEP         0.500000

INERTIAL_DAMPING     NONE
NORMAL_FLOW_LIMITED  BOTH
FORCE_MAIN_EQUATION  H-W
VARIABLE_STEP        0.75
LENGTHENING_STEP     1
MIN_SURFAREA         12.560000
MAX_TRIALS           8
HEAD_TOLERANCE       0.005
SYS_FLOW_TOL         5
LAT_FLOW_TOL         5
MINIMUM_STEP         0.5
THREADS              1

[EVAPORATION]
;;Data Source    Parameters
;;-------------- ----------------
CONSTANT         0.0
DRY_ONLY         NO

[JUNCTIONS]
;;Name           Elevation  MaxDepth   InitDepth  SurDepth   Aponded   
;;-------------- ---------- ---------- ---------- ---------- ----------
; New Junction
JCT-18           9.000000   0.333000   0.000000   200.000000 0.000000  
; New Junction
JCT-22           2.350000   6.650000   0.000000   200.000000 0.000000  
SFT23800100      9.000000   1.333000   0.000000   200.000000 0.000000  
SFT23800200      9.000000   1.333000   0.000000   200.000000 0.000000  
SFT23900000      9.000000   0.500000   0.000000   200.000000 0.000000  
SFT23900100      9.000000   0.500000   0.000000   200.000000 0.000000  
SFT23900200      9.000000   0.500000   0.000000   200.000000 0.000000  
SFT23900300      9.000000   0.500000   0.000000   200.000000 0.000000  
SFT23900400      9.000000   0.500000   0.000000   200.000000 0.000000  
SFT23900500      9.000000   0.500000   0.000000   200.000000 0.000000  
SFT23900600      9.000000   0.500000   0.000000   200.000000 0.000000  
SFT23900700      9.000000   0.500000   0.000000   200.000000 0.000000  
SFT23900800      9.000000   0.500000   0.000000   200.000000 0.000000  
SFT23900900      9.000000   0.500000   0.000000   200.000000 0.000000  
SFT23901000      9.000000   0.333000   0.000000   200.000000 0.000000  
SFT23901100      9.000000   0.333000   0.000000   200.000000 0.000000  
SFT23901200      9.000000   0.500000   0.000000   200.000000 0.000000  
SFT23901500      9.000000   0.500000   0.000000   200.000000 0.000000  
SFT23901600      9.000000   0.500000   0.000000   200.000000 0.000000  
SFT23901700      9.000000   0.500000   0.000000   200.000000 0.000000  
SFT23901800      9.000000   0.500000   0.000000   200.000000 0.000000  
SFT24000400      9.000000   1.000000   0.000000   200.000000 0.000000  
SFT24000500      9.000000   0.833000   0.000000   200.000000 0.000000  
SFT24000600      9.000000   0.833000   0.000000   200.000000 0.000000  
SFT24100500      9.000000   1.333000   0.000000   200.000000 0.000000  
SFT24100600      9.000000   1.000000   0.000000   200.000000 0.000000  
SFT24100700      9.000000   1.000000   0.000000   200.000000 0.000000  
SFT24100800      9.000000   1.000000   0.000000   200.000000 0.000000  
SFT24101300      9.000000   1.333000   0.000000   200.000000 0.000000  
SFT24101400      9.000000   1.000000   0.000000   200.000000 0.000000  
SFT24101500      9.000000   1.000000   0.000000   200.000000 0.000000  
SFT24108000      9.000000   1.000000   0.000000   200.000000 0.000000  

[OUTFALLS]
;;Name           Elevation  Type       Stage Data       Gated    Route To        
;;-------------- ---------- ---------- ---------------- -------- ----------------
; New Junction
JCT-20           9.000000   FIXED      112.950000       NO                       

[STORAGE]
;;Name           Elev.    MaxDepth   InitDepth  Shape      Curve Name/Params            N/A      Fevap    Psi      Ksat     IMD     
;;-------------- -------- ---------- ----------- ---------- ---------------------------- -------- --------          -------- --------
; New Storage
29A              2.250000 12.050000  3.750000   TABULAR    SIX                          0.000000 0.000000

[CONDUITS]
;;Name           From Node        To Node          Length     Roughness  InOffset   OutOffset  InitFlow   MaxFlow   
;;-------------- ---------------- ---------------- ---------- ---------- ---------- ---------- ---------- ----------
; Splitted conduit
CDT-17           JCT-18           SFT23901100      12.000000  0.011000   0.000000   0.000000   0.000000   0.000000  
; New Conduit
CDT-19           JCT-22           29A              10.000000  0.011000   5.000000   5.000000   0.000000   0.000000  
; New Conduit
CDT-21           SFT24100700      SFT24100600      21.000000  0.011000   0.000000   0.000000   0.000000   0.000000  
SPI23800100      SFT23800100      JCT-20           28.000000  0.011000   0.000000   0.000000   0.000000   0.000000  
SPI23800200      SFT23800200      SFT23800100      59.000000  0.011000   0.000000   0.000000   0.000000   0.000000  
SPI23900000      SFT23900000      SFT23900900      7.000000   0.011000   0.000000   0.000000   0.000000   0.000000  
SPI23900100      SFT23900100      SFT23901500      26.000000  0.011000   0.000000   0.000000   0.000000   0.000000  
SPI23900200      SFT23900200      SFT23900100      133.000000 0.011000   0.000000   0.000000   0.000000   0.000000  
SPI23900300      SFT23900300      SFT23900200      468.000000 0.011000   0.000000   0.000000   0.000000   0.000000  
SPI23900400      SFT23900400      SFT23900300      94.000000  0.011000   0.000000   0.000000   0.000000   0.000000  
SPI23900500      SFT23900500      SFT23900400      166.000000 0.011000   0.000000   0.000000   0.000000   0.000000  
SPI23900600      SFT23900600      SFT23900500      99.000000  0.011000   0.000000   0.000000   0.000000   0.000000  
SPI23900700      SFT23900700      SFT23901200      623.000000 0.011000   0.000000   0.000000   0.000000   0.000000  
SPI23900800      SFT23900800      SFT23900700      260.000000 0.011000   0.000000   0.000000   0.000000   0.000000  
SPI23900900      SFT23900900      SFT23900800      11.000000  0.011000   0.000000   0.000000   0.000000   0.000000  
SPI23901000      SFT23901000      SFT23900000      22.000000  0.011000   0.000000   0.000000   0.000000   0.000000  
SPI23901100      SFT23901100      SFT23901000      11.000000  0.011000   0.000000   0.000000   0.000000   0.000000  
SPI23901200      SFT23901200      SFT23900600      48.000000  0.011000   0.000000   0.000000   0.000000   0.000000  
SPI23901500      SFT23901500      SFT23901600      10.000000  0.011000   0.000000   0.000000   0.000000   0.000000  
SPI23901600      SFT23901600      SFT23901700      8.000000   0.011000   0.000000   0.000000   0.000000   0.000000  
SPI23901700      SFT23901700      SFT23901800      11.000000  0.011000   0.000000   0.000000   0.000000   0.000000  
SPI23901800      SFT23901800      SFT24000500      950.000000 0.011000   0.000000   0.000000   0.000000   0.000000  
SPI24000400      SFT24000400      SFT24101500      748.000000 0.011000   0.000000   0.000000   0.000000   0.000000  
SPI24000500      SFT24000500      SFT24000600      14.000000  0.011000   0.000000   0.000000   0.000000   0.000000  
SPI24000600      SFT24000600      SFT24000400      18.000000  0.011000   0.000000   0.000000   0.000000   0.000000  
SPI24100500      SFT24100500      SFT24101300      160.000000 0.011000   0.000000   0.000000   0.000000   0.000000  
SPI24100600      SFT24100600      SFT24100500      10.000000  0.011000   0.000000   0.000000   0.000000   0.000000  
SPI24100800      SFT24100800      SFT24100700      13.000000  0.011000   0.000000   0.000000   0.000000   0.000000  
SPI24101300      SFT24101300      SFT23800200      19.000000  0.011000   0.000000   0.000000   0.000000   0.000000  
SPI24101400      SFT24101400      SFT24108000      1274.000000 0.011000   0.000000   0.000000   0.000000   0.000000  
SPI24101500      SFT24101500      SFT24101400      1578.000000 0.011000   0.000000   0.000000   0.000000   0.000000  
SPI24108000      SFT24108000      SFT24100800      265.000000 0.011000   0.000000   0.000000   0.000000   0.000000  

[PUMPS]
;;Name           From Node        To Node          Pump Curve       Status   Sartup Shutoff 
;;-------------- ---------------- ---------------- ---------------- ------ -------- --------
; New Pump
29A              29A              JCT-18           100DLMF618       ON       3.750000 1.500000

[XSECTIONS]
;;Link           Shape        Geom1            Geom2      Geom3      Geom4      Barrels    Culvert   
;;-------------- ------------ ---------------- ---------- ---------- ---------- ---------- ----------
CDT-17           FORCE_MAIN   0.333333         100.000000 0.000000   0.000000   1          0         
CDT-19           CIRCULAR     0.666667         0.000000   0.000000   0.000000   1          0         
CDT-21           FORCE_MAIN   1.000000         100.000000 0.000000   0.000000   1          0         
SPI23800100      FORCE_MAIN   1.333333         100.000000 0.000000   0.000000   1          0         
SPI23800200      FORCE_MAIN   1.333333         100.000000 0.000000   0.000000   1          0         
SPI23900000      FORCE_MAIN   0.500000         100.000000 0.000000   0.000000   1          0         
SPI23900100      FORCE_MAIN   0.500000         100.000000 0.000000   0.000000   1          0         
SPI23900200      FORCE_MAIN   0.500000         100.000000 0.000000   0.000000   1          0         
SPI23900300      FORCE_MAIN   0.500000         100.000000 0.000000   0.000000   1          0         
SPI23900400      FORCE_MAIN   0.500000         100.000000 0.000000   0.000000   1          0         
SPI23900500      FORCE_MAIN   0.500000         100.000000 0.000000   0.000000   1          0         
SPI23900600      FORCE_MAIN   0.500000         100.000000 0.000000   0.000000   1          0         
SPI23900700      FORCE_MAIN   0.500000         100.000000 0.000000   0.000000   1          0         
SPI23900800      FORCE_MAIN   0.500000         100.000000 0.000000   0.000000   1          0         
SPI23900900      FORCE_MAIN   0.500000         100.000000 0.000000   0.000000   1          0         
SPI23901000      FORCE_MAIN   0.333333         100.000000 0.000000   0.000000   1          0         
SPI23901100      FORCE_MAIN   0.333333         100.000000 0.000000   0.000000   1          0         
SPI23901200      FORCE_MAIN   0.500000         100.000000 0.000000   0.000000   1          0         
SPI23901500      FORCE_MAIN   0.500000         100.000000 0.000000   0.000000   1          0         
SPI23901600      FORCE_MAIN   0.500000         100.000000 0.000000   0.000000   1          0         
SPI23901700      FORCE_MAIN   0.500000         100.000000 0.000000   0.000000   1          0         
SPI23901800      FORCE_MAIN   0.500000         100.000000 0.000000   0.000000   1          0         
SPI24000400      FORCE_MAIN   1.000000         100.000000 0.000000   0.000000   1          0         
SPI24000500      FORCE_MAIN   0.833333         100.000000 0.000000   0.000000   1          0         
SPI24000600      FORCE_MAIN   0.833333         100.000000 0.000000   0.000000   1          0         
SPI24100500      FORCE_MAIN   1.333333         100.000000 0.000000   0.000000   1          0         
SPI24100600      FORCE_MAIN   1.000000         100.000000 0.000000   0.000000   1          0         
SPI24100800      FORCE_MAIN   1.000000         100.000000 0.000000   0.000000   1          0         
SPI24101300      FORCE_MAIN   1.333333         100.000000 0.000000   0.000000   1          0         
SPI24101400      FORCE_MAIN   1.000000         100.000000 0.000000   0.000000   1          0         
SPI24101500      FORCE_MAIN   1.000000         100.000000 0.000000   0.000000   1          0         
SPI24108000      FORCE_MAIN   1.000000         100.000000 0.000000   0.000000   1          0         

[LOSSES]
;;Link           Kentry     Kexit      Kavg       Flap Gate  Seepage   
;;-------------- ---------- ---------- ---------- ---------- ----------
CDT-17           0.000000   0.000000   0.000000   YES        0         
CDT-19           0.000000   0.000000   0.000000   NO         0         
CDT-21           0.000000   0.000000   0.000000   NO         0         
SPI23800100      0.000000   0.000000   0.000000   NO         0         
SPI23800200      0.000000   0.000000   0.000000   NO         0         
SPI23900000      0.000000   0.000000   0.000000   NO         0         
SPI23900100      0.000000   0.000000   0.000000   NO         0         
SPI23900200      0.000000   0.000000   0.000000   NO         0         
SPI23900300      0.000000   0.000000   0.000000   NO         0         
SPI23900400      0.000000   0.000000   0.000000   NO         0         
SPI23900500      0.000000   0.000000   0.000000   NO         0         
SPI23900600      0.000000   0.000000   0.000000   NO         0         
SPI23900700      0.000000   0.000000   0.000000   NO         0         
SPI23900800      0.000000   0.000000   0.000000   NO         0         
SPI23900900      0.000000   0.000000   0.000000   NO         0         
SPI23901000      0.000000   0.000000   0.000000   NO         0         
SPI23901100      0.000000   0.000000   0.000000   NO         0         
SPI23901200      0.000000   0.000000   0.000000   NO         0         
SPI23901500      0.000000   0.000000   0.000000   NO         0         
SPI23901600      0.000000   0.000000   0.000000   NO         0         
SPI23901700      0.000000   0.000000   0.000000   NO         0         
SPI23901800      0.000000   0.000000   0.000000   NO         0         
SPI24000400      0.000000   0.000000   0.000000   NO         0         
SPI24000500      0.000000   0.000000   0.000000   NO         0         
SPI24000600      0.000000   0.000000   0.000000   NO         0         
SPI24100500      0.000000   0.000000   0.000000   NO         0         
SPI24100600      0.000000   0.000000   0.000000   NO         0         
SPI24100800      0.000000   0.000000   0.000000   NO         0         
SPI24101300      0.000000   0.000000   0.000000   NO         0         
SPI24101400      0.000000   0.000000   0.000000   NO         0         
SPI24101500      0.000000   0.000000   0.000000   NO         0         
SPI24108000      0.000000   0.000000   0.000000   NO         0         

[CONTROLS]


[INFLOWS]
;;Node           Constituent      Time Series      Type     Mfactor  Sfactor  Baseline Pattern
;;-------------- ---------------- ---------------- -------- -------- -------- -------- --------
JCT-22           FLOW             ""               FLOW     1.0      1.000000 26.000000

[CURVES]
;;Name           Type       X-Value    Y-Value   
;;-------------- ---------- ---------- ----------
100DLMF611       PUMP3      43.000000  750.000000
100DLMF611                  55.000000  625.000000
100DLMF611                  70.000000  450.000000
100DLMF611                  80.000000  300.000000
100DLMF611                  85.000000  175.000000
100DLMF611                  88.000000  0.000000  
;
100DLMF615       PUMP3      57.000000  750.000000
100DLMF615                  70.000000  650.000000
100DLMF615                  85.000000  520.000000
100DLMF615                  100.000000 350.000000
100DLMF615                  107.000000 200.000000
100DLMF615                  114.000000 0.000000  
;
100DLMF618       PUMP3      75.000000  750.000000
100DLMF618                  87.000000  650.000000
100DLMF618                  100.000000 517.000000
100DLMF618                  115.000000 350.000000
100DLMF618                  127.000000 200.000000
100DLMF618                  140.000000 0.000000  
;
100DLMF65.5      PUMP3      24.000000  530.000000
100DLMF65.5                 35.000000  440.000000
100DLMF65.5                 43.000000  360.000000
100DLMF65.5                 50.000000  260.000000
100DLMF65.5                 60.000000  100.000000
100DLMF65.5                 65.000000  0.000000  
;
150DLF622        PUMP3      44.000000  1600.000000
150DLF622                   55.000000  1350.000000
150DLF622                   75.000000  900.000000
150DLF622                   82.000000  700.000000
150DLF622                   95.000000  300.000000
150DLF622                   105.000000 0.000000  
;
150DLF630        PUMP3      33.000000  1850.000000
150DLF630                   60.000000  1500.000000
150DLF630                   80.000000  1200.000000
150DLF630                   110.000000 700.000000
150DLF630                   120.000000 450.000000
150DLF630                   130.000000 225.000000
150DLF630                   138.000000 0.000000  
;
80DLCMF611       PUMP3      53.500000  583.000000
80DLCMF611                  65.000000  513.000000
80DLCMF611                  80.000000  400.000000
80DLCMF611                  83.000000  375.000000
80DLCMF611                  95.000000  263.000000
80DLCMF611                  105.000000 150.000000
80DLCMF611                  110.000000 87.000000 
80DLCMF611                  117.000000 0.000000  
;
EIGHT            STORAGE    0.000000   50.240000 
EIGHT                       99.000000  50.240000 
;
SIX              STORAGE    0.000000   28.260000 
SIX                         99.000000  28.260000 
;
TEN              STORAGE    0.000000   78.500000 
TEN                         99.000000  78.500000 

[REPORT]
;;Reporting Options
INPUT      NO
CONTROLS   NO
SUBCATCHMENTS ALL
NODES ALL
LINKS ALL

[TAGS]

[MAP]
DIMENSIONS 932378.281 712012.803 933999.315 718576.539
Units      None

[COORDINATES]
;;Node           X-Coord            Y-Coord           
;;-------------- ------------------ ------------------
JCT-18           932716.612         718141.750        
JCT-22           932451.964         718232.228        
SFT23800100      933899.938         712311.438        
SFT23800200      933899.938         712370.625        
SFT23900000      932720.750         718161.000        
SFT23900100      933710.687         717318.312        
SFT23900200      933740.938         717441.000        
SFT23900300      933278.500         717463.375        
SFT23900400      933184.375         717463.375        
SFT23900500      933173.250         717625.750        
SFT23900600      933075.625         717633.875        
SFT23900700      932962.625         718278.188        
SFT23900800      932722.875         718177.000        
SFT23900900      932718.125         718167.500        
SFT23901000      932729.625         718140.500        
SFT23901100      932719.375         718135.812        
SFT23901200      933044.062         717670.375        
SFT23901500      933711.062         717291.813        
SFT23901600      933702.125         717287.438        
SFT23901700      933702.312         717279.313        
SFT23901800      933711.375         717273.625        
SFT24000400      933725.812         716292.375        
SFT24000500      933725.687         716323.750        
SFT24000600      933725.937         716309.938        
SFT24100500      933726.375         712383.187        
SFT24100600      933720.687         712391.875        
SFT24100700      933720.687         712413.937        
SFT24100800      933720.687         712426.750        
SFT24101300      933886.562         712383.687        
SFT24101400      933718.687         713966.125        
SFT24101500      933720.625         715544.125        
SFT24108000      933721.187         712685.625        
JCT-20           933925.632         712311.155        
29A              932563.577         718176.985        

[VERTICES]
;;Link           X-Coord            Y-Coord           
;;-------------- ------------------ ------------------
SPI23800100      933918.438         712311.563        
SPI23900200      933743.000         717393.125        
SPI23900200      933744.125         717366.125        
SPI23900300      933312.000         717463.375        
SPI23900300      933701.062         717463.312        
SPI23900500      933173.187         717480.937        
SPI23900600      933159.875         717633.125        
SPI23900700      932978.438         718243.563        
SPI23900700      933009.500         718175.500        
SPI23900700      933040.187         718087.063        
SPI23901000      932725.875         718149.125        
SPI23901800      933725.437         716341.812        
SPI24000400      933720.687         715555.875        
SPI24101400      933719.437         713380.687        
SPI24101400      933721.062         712740.375        
SPI24101500      933719.500         714648.188        
SPI24101500      933718.687         713984.625        

