[TITLE]
;;Project Title/Notes

[OPTIONS]
;;Option             Value
FLOW_UNITS           CFS
INFILTRATION         GREEN_AMPT
FLOW_ROUTING         DYNWAVE
LINK_OFFSETS         DEPTH
MIN_SLOPE            0
ALLOW_PONDING        NO
SKIP_STEADY_STATE    NO

START_DATE           01/01/1988
START_TIME           00:00:00
REPORT_START_DATE    01/01/1988
REPORT_START_TIME    00:00:00
END_DATE             01/01/1988
END_TIME             06:00:00
SWEEP_START          01/01
SWEEP_END            12/31
DRY_DAYS             0.000000
REPORT_STEP          00:00:10
WET_STEP             00:15:00
DRY_STEP             01:00:00
ROUTING_STEP         0:00:10 

INERTIAL_DAMPING     NONE
NORMAL_FLOW_LIMITED  BOTH
FORCE_MAIN_EQUATION  H-W
VARIABLE_STEP        0.50
LENGTHENING_STEP     0
MIN_SURFAREA         12.566000
MAX_TRIALS           0
HEAD_TOLERANCE       0
SYS_FLOW_TOL         5
LAT_FLOW_TOL         5
MINIMUM_STEP         0.5
THREADS              1

[EVAPORATION]
;;Data Source    Parameters
;;-------------- ----------------
CONSTANT         0.600000
DRY_ONLY         NO

[JUNCTIONS]
;;Name           Elevation  MaxDepth   InitDepth  SurDepth   Aponded   
;;-------------- ---------- ---------- ---------- ---------- ----------
10309            101.600000 9.400000   0.000000   0.000000   0.000000  
10309A           101.600000 9.400000   0.000000   0.000000   0.000000  
10309B           101.600000 9.400000   0.000000   0.000000   0.000000  
10309C           101.600000 9.400000   0.000000   0.000000   0.000000  
10309D           101.600000 9.400000   0.000000   0.000000   0.000000  
10309E           101.600000 9.400000   0.000000   0.000000   0.000000  
15009            111.500000 13.500000  0.000000   0.000000   0.000000  
15009A           111.500000 13.500000  0.000000   0.000000   0.000000  
15009B           111.500000 13.500000  0.000000   0.000000   0.000000  
15009C           111.500000 13.500000  0.000000   0.000000   0.000000  
15009D           111.500000 13.500000  0.000000   0.000000   0.000000  
15009E           111.500000 13.500000  0.000000   0.000000   0.000000  
16009            102.000000 18.000000  0.000000   0.000000   0.000000  
16009A           102.000000 18.000000  0.000000   0.000000   0.000000  
16009B           102.000000 18.000000  0.000000   0.000000   0.000000  
16009C           102.000000 18.000000  0.000000   0.000000   0.000000  
16009D           102.000000 18.000000  0.000000   0.000000   0.000000  
16009E           102.000000 18.000000  0.000000   0.000000   0.000000  
16109            102.800000 22.200000  0.000000   0.000000   0.000000  
16109A           102.800000 22.200000  0.000000   0.000000   0.000000  
16109B           102.800000 22.200000  0.000000   0.000000   0.000000  
16109C           102.800000 22.200000  0.000000   0.000000   0.000000  
16109D           102.800000 22.200000  0.000000   0.000000   0.000000  
16109E           102.800000 22.200000  0.000000   0.000000   0.000000  
; JUNCTION DATA
80408            124.600000 13.400000  0.000000   0.000000   0.000000  
; 2nd network or extran example 2
80408A           124.600000 13.400000  0.000000   0.000000   0.000000  
; 3rd network or extran example 3
80408B           124.600000 13.400000  0.000000   0.000000   0.000000  
; 4th network or extran example 4
80408C           124.600000 13.400000  0.000000   0.000000   0.000000  
; 5th network or extran example 5
80408D           124.600000 13.400000  0.000000   0.000000   0.000000  
; 6th network or extran example 7
80408E           124.600000 13.400000  0.000000   0.000000   0.000000  
80608            118.300000 16.700000  0.000000   0.000000   0.000000  
80608A           118.300000 16.700000  0.000000   0.000000   0.000000  
80608B           118.300000 16.700000  0.000000   0.000000   0.000000  
80608C           118.300000 16.700000  0.000000   0.000000   0.000000  
80608D           118.300000 16.700000  0.000000   0.000000   0.000000  
80608E           118.300000 16.700000  0.000000   0.000000   0.000000  
81009            128.200000 8.800000   0.000000   0.000000   0.000000  
81009A           128.200000 8.800000   0.000000   0.000000   0.000000  
81009B           128.200000 8.800000   0.000000   0.000000   0.000000  
81009C           128.200000 8.800000   0.000000   0.000000   0.000000  
81009D           128.200000 8.800000   0.000000   0.000000   0.000000  
81009E           128.200000 8.800000   0.000000   0.000000   0.000000  
81309            117.500000 12.500000  0.000000   0.000000   0.000000  
81309A           117.500000 12.500000  0.000000   0.000000   0.000000  
81309B           117.500000 12.500000  0.000000   0.000000   0.000000  
81309C           117.500000 12.500000  0.000000   0.000000   0.000000  
81309D           117.500000 12.500000  0.000000   0.000000   0.000000  
81309E           117.500000 12.500000  0.000000   0.000000   0.000000  
82308D           112.300000 42.700000  0.000000   0.000000   0.000000  
82309            112.300000 42.700000  0.000000   0.000000   0.000000  
82309A           112.300000 42.700000  0.000000   0.000000   0.000000  
82309B           112.300000 42.700000  0.000000   0.000000   0.000000  
82309C           112.300000 42.700000  0.000000   0.000000   0.000000  
82309E           112.300000 42.700000  0.000000   0.000000   0.000000  

[OUTFALLS]
;;Name           Elevation  Type       Stage Data       Gated    Route To        
;;-------------- ---------- ---------- ---------------- -------- ----------------
10208            89.900000  FREE                        NO                       
10208A           89.900000  FIXED      94.400000        YES                      
10208B           89.900000  FREE                        NO                       
10208C           89.900000  FREE                        NO                       
10208D           89.900000  FREE                        NO                       
10208E           89.900000  FREE                        NO                       

[STORAGE]
;;Name           Elev.    MaxDepth   InitDepth  Shape      Curve Name/Params            N/A      Fevap    Psi      Ksat     IMD     
;;-------------- -------- ---------- ----------- ---------- ---------------------------- -------- --------          -------- --------
82309D           112.300000 42.700000  0.000000   FUNCTIONAL 800.000000  0.000000  0.000000 0.000000 0.000000

[CONDUITS]
;;Name           From Node        To Node          Length     Roughness  InOffset   OutOffset  InitFlow   MaxFlow   
;;-------------- ---------------- ---------------- ---------- ---------- ---------- ---------- ---------- ----------
1030             10309            10208            4500.000000 0.016000   0.000000   0.000000   0.000000   0.000000  
1030A            10309A           10208A           4500.000000 0.016000   0.000000   0.000000   0.000000   0.000000  
1030B            10309B           10208B           4500.000000 0.016000   0.000000   0.000000   0.000000   0.000000  
1030C            10309C           10208C           4500.000000 0.016000   0.000000   0.000000   0.000000   0.000000  
1030D            10309D           10208D           4500.000000 0.016000   0.000000   0.000000   0.000000   0.000000  
1030E            10309E           10208E           4500.000000 0.016000   0.000000   0.000000   0.000000   0.000000  
1570             15009            16009            5000.000000 0.015400   0.000000   0.000000   0.000000   0.000000  
1570A            15009A           16009A           5000.000000 0.015400   0.000000   0.000000   0.000000   0.000000  
1570B            15009B           16009B           5000.000000 0.015400   0.000000   0.000000   0.000000   0.000000  
1570C            15009C           16009C           100.000000 0.015400   0.000000   0.000000   0.000000   0.000000  
1570D            15009D           16009D           5000.000000 0.015400   0.000000   0.000000   0.000000   0.000000  
1570E            15009E           16009E           5000.000000 0.015400   0.000000   0.000000   0.000000   0.000000  
1600             16009            16109            500.000000 0.015000   0.000000   0.000000   0.000000   0.000000  
1600A            16009A           16109A           500.000000 0.015000   0.000000   0.000000   0.000000   0.000000  
1600B            16009B           16109B           500.000000 0.015000   0.000000   0.000000   0.000000   0.000000  
1600C            16009C           16109C           500.000000 0.015000   0.000000   0.000000   0.000000   0.000000  
1600D            16009D           16109D           500.000000 0.015000   0.000000   0.000000   0.000000   0.000000  
1600E            16009E           16109E           500.000000 0.015000   0.000000   0.000000   0.000000   0.000000  
1602             82309            16109            5000.000000 0.034000   0.000000   0.000000   0.000000   0.000000  
1602A            82309A           16109A           5000.000000 0.034000   0.000000   0.000000   0.000000   0.000000  
1602B            82309B           16109B           5000.000000 0.034000   0.000000   0.000000   0.000000   0.000000  
1602C            82309C           16109C           5000.000000 0.034000   0.000000   0.000000   0.000000   0.000000  
1602D            82309D           16109D           5000.000000 0.034000   0.000000   0.000000   0.000000   0.000000  
1602E            82309E           16109E           5000.000000 0.034000   0.000000   0.000000   0.000000   0.000000  
1630             16009            10309            300.000000 0.015000   0.000000   0.000000   0.000000   0.000000  
1630A            16009A           10309A           300.000000 0.015000   0.000000   0.000000   0.000000   0.000000  
1630B            16009B           10309B           300.000000 0.015000   0.000000   0.000000   0.000000   0.000000  
1630C            16009C           10309C           300.000000 0.015000   0.000000   0.000000   0.000000   0.000000  
1630D            16009D           10309D           300.000000 0.015000   0.000000   0.000000   0.000000   0.000000  
1630E            16009E           10309E           300.000000 0.015000   0.000000   0.000000   0.000000   0.000000  
8040             80408            80608            1800.000000 0.015000   0.000000   0.000000   0.000000   0.000000  
; 2nd network or extran example 2
8040A            80408A           80608A           1800.000000 0.015000   0.000000   0.000000   0.000000   0.000000  
; 3rd network or extran example 3
8040B            80408B           80608B           1800.000000 0.015000   0.000000   0.000000   0.000000   0.000000  
; 4th network or extran example 4
8040C            80408C           80608C           1800.000000 0.015000   0.000000   0.000000   0.000000   0.000000  
; 5th network or extran example 5
8040D            80408D           80608D           1800.000000 0.015000   0.000000   0.000000   0.000000   0.000000  
; 6th network or extran example 7
8040E            80408E           80608E           1800.000000 0.015000   0.000000   0.000000   0.000000   0.000000  
8060             80608            82309            2075.000000 0.015000   0.000000   114.500000 0.000000   0.000000  
8060A            80608A           82309A           2075.000000 0.015000   0.000000   114.500000 0.000000   0.000000  
8060B            80608B           82309B           2075.000000 0.015000   0.000000   114.500000 0.000000   0.000000  
8060C            80608C           82309C           2075.000000 0.015000   0.000000   114.500000 0.000000   0.000000  
8060D            80608D           82309D           2075.000000 0.015000   0.000000   114.500000 0.000000   0.000000  
8060E            80608E           82309E           2075.000000 0.015000   0.000000   114.500000 0.000000   0.000000  
8100             81009            81309            5100.000000 0.015000   0.000000   0.000000   0.000000   0.000000  
8100A            81009A           81309A           5100.000000 0.015000   0.000000   0.000000   0.000000   0.000000  
8100B            81009B           81309B           5100.000000 0.015000   0.000000   0.000000   0.000000   0.000000  
8100C            81009C           81309C           5100.000000 0.015000   0.000000   0.000000   0.000000   0.000000  
8100D            81009D           81309D           5100.000000 0.015000   0.000000   0.000000   0.000000   0.000000  
8100E            81009E           81309E           5100.000000 0.015000   0.000000   0.000000   0.000000   0.000000  
8130             81309            15009            3500.000000 0.015000   0.000000   0.000000   0.000000   0.000000  
8130A            81309A           15009A           3500.000000 0.015000   0.000000   0.000000   0.000000   0.000000  
8130B            81309B           15009B           3500.000000 0.015000   0.000000   0.000000   0.000000   0.000000  
8130C            81309C           15009C           3500.000000 0.015000   0.000000   0.000000   0.000000   0.000000  
8130D            81309D           15009D           3500.000000 0.015000   0.000000   0.000000   0.000000   0.000000  
8130E            81309E           15009E           3500.000000 0.015000   0.000000   0.000000   0.000000   0.000000  

[PUMPS]
;;Name           From Node        To Node          Pump Curve       Status   Sartup Shutoff 
;;-------------- ---------------- ---------------- ---------------- ------ -------- --------
PUMP1@82309E-15009E 82309E           15009E           PUMPCURVEFORPUMP1@82309E-15009E ON       1.000000 0.000000

[ORIFICES]
;;Name           From Node        To Node          Type         Offset     Qcoeff     Gated    CloseTime 
;;-------------- ---------------- ---------------- ------------ ---------- ---------- -------- ----------
; *   SUMP ORIFICE AT JUNCTION 82309b for the 3rd network
OR1@82309B-15009B 82309B           15009B           BOTTOM       0.000000   0.850000   NO       0         
OR1@82309D-82308D 82309D           82308D           SIDE         0.000000   0.850000   NO       0         

[WEIRS]
;;Name           From Node        To Node          Type         CrestHt    Qcoeff     Gated    EndCon   EndCoeff   Surcharge  RoadWidth  RoadSurf  
;;-------------- ---------------- ---------------- ------------ ---------- ---------- -------- -------- ---------- ---------- ---------- ----------
WEIR1@82309C-15009C 82309C           15009C           TRANSVERSE   115.300000 3.300000   NO       0        0.000000   YES       

[XSECTIONS]
;;Link           Shape        Geom1            Geom2      Geom3      Geom4      Barrels    Culvert   
;;-------------- ------------ ---------------- ---------- ---------- ---------- ---------- ----------
1030             TRIANGULAR   9.000000         54.000000  0.000000   0.000000   1          0         
1030A            TRIANGULAR   9.000000         54.000000  0.000000   0.000000   1          0         
1030B            TRIANGULAR   9.000000         54.000000  0.000000   0.000000   1          0         
1030C            TRIANGULAR   9.000000         54.000000  0.000000   0.000000   1          0         
1030D            TRIANGULAR   9.000000         54.000000  0.000000   0.000000   1          0         
1030E            TRIANGULAR   9.000000         54.000000  0.000000   0.000000   1          0         
1570             CIRCULAR     5.500000         0.000000   0.000000   0.000000   1          0         
1570A            CIRCULAR     5.500000         0.000000   0.000000   0.000000   1          0         
1570B            CIRCULAR     5.500000         0.000000   0.000000   0.000000   1          0         
1570C            CIRCULAR     5.500000         0.000000   0.000000   0.000000   1          0         
1570D            CIRCULAR     5.500000         0.000000   0.000000   0.000000   1          0         
1570E            CIRCULAR     5.500000         0.000000   0.000000   0.000000   1          0         
1600             CIRCULAR     6.000000         0.000000   0.000000   0.000000   1          0         
1600A            CIRCULAR     6.000000         0.000000   0.000000   0.000000   1          0         
1600B            CIRCULAR     6.000000         0.000000   0.000000   0.000000   1          0         
1600C            CIRCULAR     6.000000         0.000000   0.000000   0.000000   1          0         
1600D            CIRCULAR     6.000000         0.000000   0.000000   0.000000   1          0         
1600E            CIRCULAR     6.000000         0.000000   0.000000   0.000000   1          0         
1602             CIRCULAR     5.000000         0.000000   0.000000   0.000000   1          0         
1602A            CIRCULAR     5.000000         0.000000   0.000000   0.000000   1          0         
1602B            CIRCULAR     5.000000         0.000000   0.000000   0.000000   1          0         
1602C            CIRCULAR     5.000000         0.000000   0.000000   0.000000   1          0         
1602D            CIRCULAR     5.000000         0.000000   0.000000   0.000000   1          0         
1602E            CIRCULAR     5.000000         0.000000   0.000000   0.000000   1          0         
1630             TRIANGULAR   9.000000         54.000000  0.000000   0.000000   1          0         
1630A            TRIANGULAR   9.000000         54.000000  0.000000   0.000000   1          0         
1630B            TRIANGULAR   9.000000         54.000000  0.000000   0.000000   1          0         
1630C            TRIANGULAR   9.000000         54.000000  0.000000   0.000000   1          0         
1630D            TRIANGULAR   9.000000         54.000000  0.000000   0.000000   1          0         
1630E            TRIANGULAR   9.000000         54.000000  0.000000   0.000000   1          0         
8040             CIRCULAR     4.000000         0.000000   0.000000   0.000000   1          0         
8040A            CIRCULAR     4.000000         0.000000   0.000000   0.000000   1          0         
8040B            CIRCULAR     4.000000         0.000000   0.000000   0.000000   1          0         
8040C            CIRCULAR     4.000000         0.000000   0.000000   0.000000   1          0         
8040D            CIRCULAR     4.000000         0.000000   0.000000   0.000000   1          0         
8040E            CIRCULAR     4.000000         0.000000   0.000000   0.000000   1          0         
8060             CIRCULAR     4.000000         0.000000   0.000000   0.000000   1          0         
8060A            CIRCULAR     4.000000         0.000000   0.000000   0.000000   1          0         
8060B            CIRCULAR     4.000000         0.000000   0.000000   0.000000   1          0         
8060C            CIRCULAR     4.000000         0.000000   0.000000   0.000000   1          0         
8060D            CIRCULAR     4.000000         0.000000   0.000000   0.000000   1          0         
8060E            CIRCULAR     4.000000         0.000000   0.000000   0.000000   1          0         
8100             CIRCULAR     4.500000         0.000000   0.000000   0.000000   1          0         
8100A            CIRCULAR     4.500000         0.000000   0.000000   0.000000   1          0         
8100B            CIRCULAR     4.500000         0.000000   0.000000   0.000000   1          0         
8100C            CIRCULAR     4.500000         0.000000   0.000000   0.000000   1          0         
8100D            CIRCULAR     4.500000         0.000000   0.000000   0.000000   1          0         
8100E            CIRCULAR     4.500000         0.000000   0.000000   0.000000   1          0         
8130             CIRCULAR     4.500000         0.000000   0.000000   0.000000   1          0         
8130A            CIRCULAR     4.500000         0.000000   0.000000   0.000000   1          0         
8130B            CIRCULAR     4.500000         0.000000   0.000000   0.000000   1          0         
8130C            CIRCULAR     4.500000         0.000000   0.000000   0.000000   1          0         
8130D            CIRCULAR     4.500000         0.000000   0.000000   0.000000   1          0         
8130E            CIRCULAR     4.500000         0.000000   0.000000   0.000000   1          0         
OR1@82309B-15009B CIRCULAR     1.000000         0          0          0
OR1@82309D-82308D CIRCULAR     2.000000         0          0          0
WEIR1@82309C-15009C RECT_OPEN    6.000000         3.000000   0.000000   0.000000  

[LOSSES]
;;Link           Kentry     Kexit      Kavg       Flap Gate  Seepage   
;;-------------- ---------- ---------- ---------- ---------- ----------
1030             0.000000   0.000000   0.000000   NO         0         
1030A            0.000000   0.000000   0.000000   NO         0         
1030B            0.000000   0.000000   0.000000   NO         0         
1030C            0.000000   0.000000   0.000000   NO         0         
1030D            0.000000   0.000000   0.000000   NO         0         
1030E            0.000000   0.000000   0.000000   NO         0         
1570             0.000000   0.000000   0.000000   NO         0         
1570A            0.000000   0.000000   0.000000   NO         0         
1570B            0.000000   0.000000   0.000000   NO         0         
1570C            0.000000   0.000000   0.000000   NO         0         
1570D            0.000000   0.000000   0.000000   NO         0         
1570E            0.000000   0.000000   0.000000   NO         0         
1600             0.000000   0.000000   0.000000   NO         0         
1600A            0.000000   0.000000   0.000000   NO         0         
1600B            0.000000   0.000000   0.000000   NO         0         
1600C            0.000000   0.000000   0.000000   NO         0         
1600D            0.000000   0.000000   0.000000   NO         0         
1600E            0.000000   0.000000   0.000000   NO         0         
1602             0.000000   0.000000   0.000000   NO         0         
1602A            0.000000   0.000000   0.000000   NO         0         
1602B            0.000000   0.000000   0.000000   NO         0         
1602C            0.000000   0.000000   0.000000   NO         0         
1602D            0.000000   0.000000   0.000000   NO         0         
1602E            0.000000   0.000000   0.000000   NO         0         
1630             0.000000   0.000000   0.000000   NO         0         
1630A            0.000000   0.000000   0.000000   NO         0         
1630B            0.000000   0.000000   0.000000   NO         0         
1630C            0.000000   0.000000   0.000000   NO         0         
1630D            0.000000   0.000000   0.000000   NO         0         
1630E            0.000000   0.000000   0.000000   NO         0         
8040             0.000000   0.000000   0.000000   NO         0         
8040A            0.000000   0.000000   0.000000   NO         0         
8040B            0.000000   0.000000   0.000000   NO         0         
8040C            0.000000   0.000000   0.000000   NO         0         
8040D            0.000000   0.000000   0.000000   NO         0         
8040E            0.000000   0.000000   0.000000   NO         0         
8060             0.000000   0.000000   0.000000   NO         0         
8060A            0.000000   0.000000   0.000000   NO         0         
8060B            0.000000   0.000000   0.000000   NO         0         
8060C            0.000000   0.000000   0.000000   NO         0         
8060D            0.000000   0.000000   0.000000   NO         0         
8060E            0.000000   0.000000   0.000000   NO         0         
8100             0.000000   0.000000   0.000000   NO         0         
8100A            0.000000   0.000000   0.000000   NO         0         
8100B            0.000000   0.000000   0.000000   NO         0         
8100C            0.000000   0.000000   0.000000   NO         0         
8100D            0.000000   0.000000   0.000000   NO         0         
8100E            0.000000   0.000000   0.000000   NO         0         
8130             0.000000   0.000000   0.000000   NO         0         
8130A            0.000000   0.000000   0.000000   NO         0         
8130B            0.000000   0.000000   0.000000   NO         0         
8130C            0.000000   0.000000   0.000000   NO         0         
8130D            0.000000   0.000000   0.000000   NO         0         
8130E            0.000000   0.000000   0.000000   NO         0         

[CONTROLS]


[INFLOWS]
;;Node           Constituent      Time Series      Type     Mfactor  Sfactor  Baseline Pattern
;;-------------- ---------------- ---------------- -------- -------- -------- -------- --------
80408            FLOW             INFLOW@80408     FLOW     1.0      1.000000         
80408A           FLOW             INFLOW@80408A    FLOW     1.0      1.000000         
80408B           FLOW             INFLOW@80408B    FLOW     1.0      1.000000         
80408C           FLOW             INFLOW@80408C    FLOW     1.0      1.000000         
80408D           FLOW             INFLOW@80408D    FLOW     1.0      1.000000         
80408E           FLOW             INFLOW@80408E    FLOW     1.0      0.500000         
81009            FLOW             INFLOW@81009     FLOW     1.0      1.000000         
81009A           FLOW             INFLOW@81009A    FLOW     1.0      1.000000         
81009B           FLOW             INFLOW@81009B    FLOW     1.0      1.000000         
81009C           FLOW             INFLOW@81009C    FLOW     1.0      1.000000         
81009D           FLOW             INFLOW@81009D    FLOW     1.0      1.000000         
81009E           FLOW             INFLOW@81009E    FLOW     1.0      1.000000         
82309            FLOW             INFLOW@82309     FLOW     1.0      1.000000         
82309A           FLOW             INFLOW@82309A    FLOW     1.0      1.000000         
82309B           FLOW             INFLOW@82309B    FLOW     1.0      1.000000         
82309C           FLOW             INFLOW@82309C    FLOW     1.0      1.000000         
82309E           FLOW             INFLOW@82309E    FLOW     1.0      1.000000         
82309D           FLOW             INFLOW@82309D    FLOW     1.0      1.000000         

[DWF]
;;Node           Constituent      Baseline   Patterns  
;;-------------- ---------------- ---------- ----------
16109            FLOW             0.000000   "" "" ""
80408A           FLOW             10.000000  "WEEK" "" ""

[CURVES]
;;Name           Type       X-Value    Y-Value   
;;-------------- ---------- ---------- ----------
PUMPCURVEFORPUMP1@82309E-15009E PUMP2      1.000000   5.000000  
PUMPCURVEFORPUMP1@82309E-15009E            5.000000   10.000000 
PUMPCURVEFORPUMP1@82309E-15009E            10.000000  20.000000 
;
SB1              STORAGE    0.000000   0.000000  
SB1                         1.000000   0.000000  
SB1                         1.500000   0.000000  
SB1                         2.000000   0.000000  
SB1                         2.500000   340.000000
SB1                         3.000000   2483.000000
SB1                         3.500000   5686.000000
SB1                         4.000000   11585.000000
SB1                         4.500000   51299.000000
SB1                         5.000000   278327.000000
SB1                         5.500000   526214.000000
SB1                         6.000000   740422.000000
SB1                         6.500000   839055.000000
SB1                         7.000000   864692.000000
SB1                         8.000000   866863.000000
SB1                         9.000000   868103.000000
SB1                         10.000000  868394.000000
;
SB2              STORAGE    0.000000   0.000000  
SB2                         1.000000   0.000000  
SB2                         1.500000   7103.000000
SB2                         2.000000   31791.000000
SB2                         2.500000   71923.000000
SB2                         3.000000   122585.000000
SB2                         3.500000   183836.000000
SB2                         4.000000   272757.000000
SB2                         4.500000   460705.000000
SB2                         5.000000   751151.000000
SB2                         5.500000   967995.000000
SB2                         6.000000   1095621.000000
SB2                         6.500000   1101547.000000
SB2                         7.000000   1101970.000000
SB2                         8.000000   1102600.000000
SB2                         9.000000   1103111.000000
SB2                         10.000000  1103519.000000
;
SB3              STORAGE    0.000000   0.000000  
SB3                         1.000000   0.000000  
SB3                         1.500000   0.000000  
SB3                         2.000000   0.000000  
SB3                         2.500000   0.000000  
SB3                         3.000000   332.000000
SB3                         3.500000   23187.000000
SB3                         4.000000   127395.000000
SB3                         4.500000   316178.000000
SB3                         5.000000   471158.000000
SB3                         5.500000   554586.000000
SB3                         6.000000   598930.000000
SB3                         6.500000   615368.000000
SB3                         7.000000   619054.000000
SB3                         8.000000   623164.000000
SB3                         9.000000   626320.000000
SB3                         10.000000  628073.000000
;
SB4              STORAGE    0.000000   1565.000000
SB4                         1.000000   2261.000000
SB4                         1.500000   2607.000000
SB4                         2.000000   3010.000000
SB4                         2.500000   3441.000000
SB4                         3.000000   3901.000000
SB4                         3.500000   4388.000000
SB4                         4.000000   6141.000000
SB4                         4.500000   73936.000000
SB4                         5.000000   305776.000000
SB4                         5.500000   477898.000000
SB4                         6.000000   581768.000000