[OPTIONS]
;Option and Files Scenario Set: BASE, Base Simulation Options
FLOW_UNITS	LPS
INFILTRATION	HORTON
FLOW_ROUTING	DYNWAVE
ALLOW_PONDING	NO
DRY_DAYS	5.000000
SKIP_STEADY_STATE 	NO
IGNORE_RAINFALL	NO
IGNORE_SNOWMELT	NO
IGNORE_GROUNDWATER	NO
IGNORE_QUALITY	NO
FORCE_MAIN_EQUATION	D-W
LINK_OFFSETS	DEPTH
MIN_SLOPE	0.000000
START_DATE	06/01/2009
START_TIME	00:00
END_DATE	06/05/2009
END_TIME	23:55
REPORT_START_DATE	06/01/2009
REPORT_START_TIME	00:00
SWEEP_START	01/01
SWEEP_END	12/31
WET_STEP	01:00:00
DRY_STEP	23:00:00
ROUTING_STEP	30
REPORT_STEP	00:05:00
INERTIAL_DAMPING	PARTIAL
VARIABLE_STEP	0.750000
MINIMUM_STEP	0.000000
LENGTHENING_STEP	5
MIN_SURFAREA	0.000000
NORMAL_FLOW_LIMITED	SLOPE
MAX_TRIALS	4
HEAD_TOLERANCE	0.005000

[FILES]

[RAINGAGES]
; Raingage
BANGALOW_GAUGE	VOLUME	0.083333	1.000000	TIMESERIES	BANGALOW_1-2-1		

[HYDROGRAPHS]
; 
DEFAULT	BANGALOW_GAUGE
DEFAULT	ALL	Short	0.003000	1.000000	2.000000	0.000000	0.000000	0.000000
DEFAULT	ALL	Medium	0.009000	6.000000	2.000000	0.000000	0.000000	0.000000
DEFAULT	ALL	Long	0.031000	15.000000	2.500000	0.000000	0.000000	0.000000

[EVAPORATION]
CONSTANT	0.000000
DRY_ONLY	NO

[TEMPERATURE]
; BASE Run Climatology Settings

[ADJUSTMENTS]

[SUBCATCHMENTS]

[SUBAREAS]

[INFILTRATION]

[AQUIFERS]

[GROUNDWATER]

[GWF]

[SNOWPACKS]

[JUNCTIONS]
; Dead End
DE01	55.656294	2.222200	0.000000	0.000000	0.000000
; Dead End
DE03	59.500000	1.094000	0.000000	0.000000	0.000000
; Dead End
DE04	61.830000	1.276000	0.000000	0.000000	0.000000
; Dead End
DE07	46.455000	1.000000	0.000000	0.000000	0.000000
; Dead End
DE08	46.085268	2.222200	0.000000	0.000000	0.000000
; Dead End
DE_LINE_A	54.864000	0.930000	0.000000	0.000000	0.000000
; Dead End
DE_LINE_AA	57.265824	1.515000	0.000000	0.000000	0.000000
; Dead End
DE_LINE_AC	72.286368	0.945000	0.000000	0.000000	0.000000
; Dead End
DE_LINE_AE	57.817512	2.222200	0.000000	0.000000	0.000000
; Dead End
DE_LINE_AH	58.545984	0.945000	0.000000	0.000000	0.000000
; Dead End
DE_LINE_AI	51.015900	2.222200	0.000000	0.000000	0.000000
; Dead End
DE_LINE_AJ	61.341000	1.067000	0.000000	0.000000	0.000000
; Dead End
DE_LINE_AM	46.116240	0.924000	0.000000	0.000000	0.000000
; Dead End
DE_LINE_AS	42.799616	2.222200	0.000000	0.000000	0.000000
; Dead End
DE_LINE_AT	45.351092	2.222200	0.000000	0.000000	0.000000
; Dead End
DE_LINE_BA	70.600000	1.900000	0.000000	0.000000	0.000000
; Dead End
DE_LINE_BD	56.011346	2.222200	0.000000	0.000000	0.000000
; Dead End
DE_LINE_BE	46.300000	0.900000	0.000000	0.000000	0.000000
; Dead End
DE_LINE_BG	45.040000	0.970000	0.000000	0.000000	0.000000
; Dead End
DE_LINE_BHA	64.775385	2.222200	0.000000	0.000000	0.000000
; Dead End
DE_LINE_BJA	53.980645	2.222200	0.000000	0.000000	0.000000
; Dead End
DE_LINE_BJB	53.980645	2.222200	0.000000	0.000000	0.000000
; Dead End
DE_LINE_BK	48.670000	0.900000	0.000000	0.000000	0.000000
; Dead End
DE_LINE_BM	42.420000	2.222200	0.000000	0.000000	0.000000
; Dead End
DE_LINE_BO	42.790000	2.222200	0.000000	0.000000	0.000000
; Dead End
DE_LINE_BP	42.540000	2.222200	0.000000	0.000000	0.000000
; Dead End
DE_LINE_BQ	42.690000	2.222200	0.000000	0.000000	0.000000
; Dead End
DE_LINE_CA	47.140000	1.160000	0.000000	0.000000	0.000000
; Dead End
DE_LINE_CB	44.658085	1.000000	0.000000	0.000000	0.000000
; Dead End
DE_LINE_CD	45.410000	0.890000	0.000000	0.000000	0.000000
; Dead End
DE_LINE_CDB	46.800000	1.000000	0.000000	0.000000	0.000000
; Dead End
DE_LINE_CE	43.470000	1.000000	0.000000	0.000000	0.000000
; Dead End
DE_LINE_CF	46.017220	1.000000	0.000000	0.000000	0.000000
; Dead End
DE_LINE_DA	63.200000	2.170000	0.000000	0.000000	0.000000
; Dead End
DE_LINE_DB	69.620000	1.880000	0.000000	0.000000	0.000000
; Dead End
DE_LINE_DC	57.670000	1.790000	0.000000	0.000000	0.000000
; Dead End
DE_LINE_DD	60.322000	2.222200	0.000000	0.000000	0.000000
; Dead End
DE_LINE_DE	68.235000	1.600000	0.000000	0.000000	0.000000
; Dead End
DE_LINE_DF	64.162000	1.198000	0.000000	0.000000	0.000000
; Dead End
DE_LINE_DG	65.581000	1.149000	0.000000	0.000000	0.000000
; Dead End
DE_LINE_DH	59.740000	0.920000	0.000000	0.000000	0.000000
; Dead End
DE_LINE_DJ	69.584000	1.326000	0.000000	0.000000	0.000000
; Dead End
DE_LINE_DK	75.080000	1.920000	0.000000	0.000000	0.000000
; Dead End
DE_LINE_DL	57.950000	1.020000	0.000000	0.000000	0.000000
; Dead End
DE_LINE_DM	71.340000	2.680000	0.000000	0.000000	0.000000
; Dead End
DE_LINE_DN	70.500000	1.120000	0.000000	0.000000	0.000000
; Dead End
DE_LINE_DNB	74.300000	1.780000	0.000000	0.000000	0.000000
; Dead End
DE_LINE_DO	83.360000	2.040000	0.000000	0.000000	0.000000
; Dead End
DE_LINE_DP	79.300000	1.900000	0.000000	0.000000	0.000000
; Dead End
DE_LINE_DQ	55.750000	2.050000	0.000000	0.000000	0.000000
; Dead End
DE_LINE_EAA	54.298000	1.486000	0.000000	0.000000	0.000000
; Dead End
DE_LINE_EAAB	53.760000	1.740000	0.000000	0.000000	0.000000
; Dead End
DE_LINE_EB	50.400000	2.151000	0.000000	0.000000	0.000000
; Dead End
DE_LINE_EC	52.055781	2.222200	0.000000	0.000000	0.000000
; Dead End
DE_LINE_ED	54.337785	2.222200	0.000000	0.000000	0.000000
; Dead End
DE_LINE_EF	59.500000	1.000000	0.000000	0.000000	0.000000
; Dead End
DE_LINE_EG	57.500000	1.250000	0.000000	0.000000	0.000000
; Dead End
DE_LINE_EH	56.335714	2.222200	0.000000	0.000000	0.000000
; Dead End
DE_LINE_EIA	49.900000	1.100000	0.000000	0.000000	0.000000
; Dead End
DE_LINE_EIB	44.810000	1.440000	0.000000	0.000000	0.000000
; Dead End
DE_LINE_ENA	60.136000	2.200000	0.000000	0.000000	0.000000
; Dead End
DE_LINE_ENB	46.680000	2.577000	0.000000	0.000000	0.000000
; Dead End
DE_LINE_ENC	57.097000	2.347000	0.000000	0.000000	0.000000
; Dead End
DE_LINE_H	48.923000	3.077000	0.000000	0.000000	0.000000
; Dead End
DE_LINE_HA	57.940000	0.996000	0.000000	0.000000	0.000000
; Dead End
DE_LINE_HB	63.850000	0.995000	0.000000	0.000000	0.000000
; Dead End
DE_LINE_HC	63.390000	1.084000	0.000000	0.000000	0.000000
; Dead End
DE_LINE_HD	61.690000	1.141000	0.000000	0.000000	0.000000
; Dead End
DE_LINE_HE	54.070000	1.969000	0.000000	0.000000	0.000000
; Dead End
DE_LINE_HF	52.470000	0.997000	0.000000	0.000000	0.000000
; Dead End
DE_LINE_HG	51.780000	0.890000	0.000000	0.000000	0.000000
; Dead End
DE_LINE_HGB	52.250000	1.347000	0.000000	0.000000	0.000000
; Dead End
DE_LINE_K	55.528464	0.939000	0.000000	0.000000	0.000000
; Dead End
DE_LINE_L	56.454000	0.666000	0.000000	0.000000	0.000000
; Dead End
DE_LINE_M	51.060096	0.914000	0.000000	0.000000	0.000000
; Dead End
DE_LINE_P	42.821352	0.829000	0.000000	0.000000	0.000000
; Dead End
DE_LINE_R	43.793664	1.447000	0.000000	0.000000	0.000000
; Dead End
DE_LINE_S	76.992480	0.915000	0.000000	0.000000	0.000000
; Dead End
DE_LINE_SB	72.998245	2.222200	0.000000	0.000000	0.000000
; Dead End
DE_LINE_T	65.127820	2.222200	0.000000	0.000000	0.000000
; Dead End
DE_LINE_T7A	58.850000	1.010000	0.000000	0.000000	0.000000
; Dead End
DE_LINE_TA	46.644036	2.222200	0.000000	0.000000	0.000000
; Dead End
DE_LINE_W	79.958184	0.942000	0.000000	0.000000	0.000000
; Dead End
DE_LINE_X	47.646336	1.076000	0.000000	0.000000	0.000000
; Dead End
DE_LINE_Y	54.595776	0.914000	0.000000	0.000000	0.000000
; High Point for SPS1006
H_PIONT_SPS1006	61.900000	0.100000	0.000000	1000.000000	0.000000
; High Point for SPS1001 Raising Main
H_POINT_SPS1001	63.850000	0.150000	0.150000	1000.000000	0.000000
; High Point for SPS1002 Rising Main
H_POINT_SPS1002	48.900000	0.100000	0.100000	1000.000000	0.000000
; High Point for SPS1003
H_POINT_SPS1003	49.800000	0.200000	0.000000	1000.000000	0.000000
; New Junction
JCT-196	44.350000	0.100000	0.100000	1000.000000	0.000000
; SPS1006 Outlet
JCT-198	52.180000	0.100000	0.100000	1000.000000	0.000000
; SPS1001 Outlet
JCT-200	45.722000	0.150000	0.000000	1000.000000	0.000000
; SPS1003 Outlet
JCT-202	42.518000	0.200000	0.200000	1000.000000	0.000000
; SPS1005 Outlet
JCT-204	43.900000	0.100000	0.100000	1000.000000	0.000000
; SPS1004 Outlet
JCT-206	40.310000	0.050000	0.050000	1000.000000	0.000000
; SPS1007 Outlet
JCT-208	43.380000	0.150000	0.150000	1000.000000	0.000000
; Connection Between Rising Mains 1005 A and B
JCT-210	53.969231	0.100000	0.100000	1000.000000	0.000000
; Bangalow Sewerage Treatment Plant
STP	44.500000	0.500000	0.000000	1000.000000	0.000000
; A/1
W000002493	39.995760	2.222200	0.000000	0.000000	0.000000
; A/2
W000002494	40.437816	5.434000	0.000000	0.000000	0.000000
; A/3
W000002495	40.748712	4.849000	0.000000	0.000000	0.000000
; A/4
W000002496	40.980360	3.621000	0.000000	0.000000	0.000000
; A/5
W000002497	41.306496	2.603000	0.000000	0.000000	0.000000
; A/6
W000002498	41.644824	0.667000	0.000000	0.000000	0.000000
; A/7
W000002499	42.144696	1.908000	0.000000	0.000000	0.000000
; A/8
W000002500	42.428160	1.606000	0.000000	0.000000	0.000000
; A/10
W000002501	45.854112	1.478000	0.000000	0.000000	0.000000
; A/9
W000002502	43.080432	1.692000	0.000000	0.000000	0.000000
; A/11
W000002503	50.532792	1.158000	0.000000	0.000000	0.000000
; A/12
W000002504	52.748688	1.158000	0.000000	0.000000	0.000000
; AL/1
W000002505	42.016680	2.328000	0.000000	0.000000	0.000000
; AT/1
W000002506	44.655249	2.222200	0.000000	0.000000	0.000000
; B/1
W000002507	40.011000	5.741000	0.000000	0.000000	0.000000
; B/2
W000002508	41.522904	3.182000	0.000000	0.000000	0.000000
; B/3
W000002509	41.949624	2.560000	0.000000	0.000000	0.000000
; B/4
W000002510	42.483024	1.960000	0.000000	0.000000	0.000000
; B/5
W000002511	42.946320	1.613000	0.000000	0.000000	0.000000
; B/6
W000002512	43.647360	0.973000	0.000000	0.000000	0.000000
; B/7
W000002513	43.818048	0.704000	0.000000	0.000000	0.000000
; B/8
W000002514	44.202000	1.536000	0.000000	0.000000	0.000000
; B/9
W000002515	44.461852	1.500000	0.000000	0.000000	0.000000
; B/10
W000002516	46.265592	1.402000	0.000000	0.000000	0.000000
; B/11
W000002517	48.984408	1.003000	0.000000	0.000000	0.000000
; B/12
W000002518	45.064680	3.185000	0.000000	0.000000	0.000000
; B13
W000002519	51.069240	1.049000	0.000000	0.000000	0.000000
; B/14
W000002520	52.392072	1.030000	0.000000	0.000000	0.000000
; C/1
W000002521	41.440608	0.987000	0.000000	0.000000	0.000000
; C/2
W000002522	41.766744	2.170000	0.000000	0.000000	0.000000
; C/3
W000002523	42.739056	1.920000	0.000000	0.000000	0.000000
; C/4
W000002524	43.839384	1.012000	0.000000	0.000000	0.000000
; C/5
W000002525	45.351192	1.296000	0.000000	0.000000	0.000000
; C/6
W000002526	46.455000	0.954000	0.000000	0.000000	0.000000
; D/1
W000002527	44.890944	1.509000	0.000000	0.000000	0.000000
; H/1
W000002528	42.714672	1.530000	0.000000	0.000000	0.000000
; H/2
W000002529	43.486000	1.487000	0.000000	0.000000	0.000000
; H/3
W000002530	43.918632	1.082000	0.000000	0.000000	0.000000
; H/4
W000002531	46.494192	2.951000	0.000000	0.000000	0.000000
; H/5
W000002532	48.542000	1.158000	0.000000	0.000000	0.000000
; H/6
W000002533	48.723000	3.191000	0.000000	0.000000	0.000000
; J/1
W000002534	43.541000	1.045000	0.000000	0.000000	0.000000
; J/2
W000002535	44.291104	1.000000	0.000000	0.000000	0.000000
; K/1
W000002536	49.203864	1.725000	0.000000	0.000000	0.000000
; K/2
W000002537	49.511712	1.963000	0.000000	0.000000	0.000000
; K/3
W000002538	52.242720	0.823000	0.000000	0.000000	0.000000
; K/4
W000002539	53.827680	0.881000	0.000000	0.000000	0.000000
; L/1
W000002540	43.007280	1.988000	0.000000	0.000000	0.000000
; L/2
W000002541	43.455336	1.671000	0.000000	0.000000	0.000000
; L/3
W000002542	43.927776	1.256000	0.000000	0.000000	0.000000
; L/4
W000002543	45.131000	2.222200	0.000000	0.000000	0.000000
; L/5
W000002544	48.514000	1.158000	0.000000	0.000000	0.000000
; L/6
W000002545	49.989000	1.067000	0.000000	0.000000	0.000000
; L/7
W000002546	50.398000	0.929000	0.000000	0.000000	0.000000
; L/8
W000002547	52.470000	1.195000	0.000000	0.000000	0.000000
; L/9
W000002548	54.528000	1.432000	0.000000	0.000000	0.000000
; M/1
W000002549	46.549056	1.585000	0.000000	0.000000	0.000000
; M/2
W000002550	48.780192	1.317000	0.000000	0.000000	0.000000
; N/1
W000002551	51.056000	1.027000	0.000000	0.000000	0.000000
; P/1
W000002552	42.632376	1.031000	0.000000	0.000000	0.000000
; BA/2
W000002554	41.300000	3.150000	0.000000	0.000000	0.000000
; BA/3
W000002555	43.240000	0.960000	0.000000	0.000000	0.000000
; BA/4
W000002556	47.300000	1.240000	0.000000	0.000000	0.000000
; BA/5
W000002557	52.040000	1.600000	0.000000	0.000000	0.000000
; BA/6
W000002558	58.160000	1.800000	0.000000	0.000000	0.000000
; BA/7
W000002559	63.080000	2.390000	0.000000	0.000000	0.000000
; BA/8
W000002560	64.300000	1.200000	0.000000	0.000000	0.000000
; BA/9
W000002561	65.000000	1.200000	0.000000	0.000000	0.000000
; BB/1
W000002562	41.670000	1.500000	0.000000	0.000000	0.000000
; BB/2
W000002563	42.230000	1.700000	0.000000	0.000000	0.000000
; BB/3
W000002564	42.870000	1.220000	0.000000	0.000000	0.000000
; BB/4
W000002565	43.450000	0.840000	0.000000	0.000000	0.000000
; BC/1
W000002566	44.670000	1.720000	0.000000	0.000000	0.000000
; BC/2
W000002567	45.030000	1.440000	0.000000	0.000000	0.000000
; BC/3
W000002568	48.940000	1.430000	0.000000	0.000000	0.000000
; BC/4
W000002569	49.350000	1.110000	0.000000	0.000000	0.000000
; BC/5
W000002570	52.600000	2.370000	0.000000	0.000000	0.000000
; BC/6
W000002571	53.110000	2.110000	0.000000	0.000000	0.000000
; BC/7
W000002572	57.980000	1.000000	0.000000	0.000000	0.000000
; BC/8
W000002573	64.100000	1.000000	0.000000	0.000000	0.000000
; BC/9
W000002574	68.070000	1.130000	0.000000	0.000000	0.000000
; BD/1
W000002575	52.030000	2.000000	0.000000	0.000000	0.000000
; BE/1
W000002576	46.060000	1.020000	0.000000	0.000000	0.000000
; BF/1
W000002577	45.580000	1.320000	0.000000	0.000000	0.000000
; BF/2
W000002578	47.200000	2.200000	0.000000	0.000000	0.000000
; BG/1
W000002579	44.780000	0.670000	0.000000	0.000000	0.000000
; BH/1
W000002580	43.940000	2.570000	0.000000	0.000000	0.000000
; BH/2
W000002581	46.930000	1.680000	0.000000	0.000000	0.000000
; BH/3
W000002582	50.570000	1.660000	0.000000	0.000000	0.000000
; BH/4
W000002583	51.610000	1.090000	0.000000	0.000000	0.000000
; BH/4A
W000002584	51.873000	1.627000	0.000000	0.000000	0.000000
; BH/5
W000002585	54.430000	1.340000	0.000000	0.000000	0.000000
; BH/5A
W000002586	57.690000	2.199000	0.000000	0.000000	0.000000
; BH/6
W000002587	60.710000	0.960000	0.000000	0.000000	0.000000
; BH/7
W000002588	63.450000	0.900000	0.000000	0.000000	0.000000
; BJ/1
W000002590	47.880000	0.900000	0.000000	0.000000	0.000000
; BJ/2
W000002591	51.438710	2.222200	0.000000	0.000000	0.000000
; BK/1
W000002592	47.390000	0.960000	0.000000	0.000000	0.000000
; BL/1
W000002593	57.150000	0.900000	0.000000	0.000000	0.000000
; BM/1
W000002594	41.180000	3.270000	0.000000	0.000000	0.000000
; BM/2
W000002595	41.600000	2.222200	0.000000	0.000000	0.000000
; BM/3
W000002596	42.060000	2.222200	0.000000	0.000000	0.000000
; BO/1
W000002597	42.050000	2.222200	0.000000	0.000000	0.000000
; BO/2
W000002598	42.450000	2.222200	0.000000	0.000000	0.000000
; AA/1
W000002599	54.714648	1.347000	0.000000	0.000000	0.000000
; AA/2
W000002600	55.284624	2.682000	0.000000	0.000000	0.000000
; AA/3
W000002601	56.061864	1.103000	0.000000	0.000000	0.000000
; AAA/1
W000002602	56.140000	1.090000	0.000000	0.000000	0.000000
; AAA/2
W000002603	58.395000	1.695000	0.000000	0.000000	0.000000
; AAA/3
W000002604	58.770000	1.060000	0.000000	1000.000000	0.000000
; AC/1
W000002605	68.919410	2.222200	0.000000	0.000000	0.000000
; AE/1
W000002606	56.686704	1.006000	0.000000	0.000000	0.000000
; AE/2
W000002607	57.241440	2.902000	0.000000	0.000000	0.000000
; AE/3
W000002608	57.747408	0.976000	0.000000	0.000000	0.000000
; AE/4
W000002609	58.707528	2.563000	0.000000	0.000000	0.000000
; AE/5
W000002610	59.076336	1.814000	0.000000	0.000000	0.000000
; AE/6
W000002611	59.792616	0.859000	0.000000	0.000000	0.000000
; AE/7
W000002612	60.243720	1.341000	0.000000	0.000000	0.000000
; AE/8
W000002613	60.685680	1.746000	0.000000	0.000000	0.000000
; AE/9
W000002614	61.386720	1.883000	0.000000	0.000000	0.000000
; AE/10
W000002615	61.807344	1.128000	0.000000	0.000000	0.000000
; AE/11
W000002616	65.897760	0.935000	0.000000	0.000000	0.000000
; AG/1
W000002617	64.145160	1.503000	0.000000	0.000000	0.000000
; AG/2
W000002618	66.556128	1.064000	0.000000	0.000000	0.000000
; AI/1
W000002619	50.898552	2.191000	0.000000	0.000000	0.000000
; EA/6
W000002620	55.520000	3.050000	0.000000	0.000000	0.000000
; S/1
W000002621	39.636192	1.997000	0.000000	0.000000	0.000000
; S/2
W000002622	40.041271	2.116000	0.000000	0.000000	0.000000
; S/3
W000002623	40.355520	0.707000	0.000000	0.000000	0.000000
; S/4
W000002624	40.730424	1.640000	0.000000	0.000000	0.000000
; S/5
W000002625	41.059608	2.475000	0.000000	0.000000	0.000000
; S/6
W000002626	42.083736	2.545000	0.000000	0.000000	0.000000
; S/7
W000002627	47.048928	1.664000	0.000000	0.000000	0.000000
; S/8
W000002628	49.045368	0.921000	0.000000	0.000000	0.000000
; S/9
W000002629	49.194720	1.697000	0.000000	0.000000	0.000000
; S/10
W000002630	52.724304	3.423000	0.000000	0.000000	0.000000
; S/11
W000002631	53.041296	4.719000	0.000000	0.000000	0.000000
; S/12
W000002632	53.717952	4.551000	0.000000	0.000000	0.000000
; S/13
W000002633	54.153816	1.707000	0.000000	0.000000	0.000000
; S/14
W000002634	56.994552	4.078000	0.000000	0.000000	0.000000
; S/15
W000002635	59.667648	3.484000	0.000000	0.000000	0.000000
; S/16
W000002636	62.663832	4.413000	0.000000	0.000000	0.000000
; S/17
W000002637	63.694056	1.311000	0.000000	0.000000	0.000000
; S/18
W000002639	67.818000	1.131000	0.000000	0.000000	0.000000
; S/19
W000002640	72.612504	1.240000	0.000000	0.000000	0.000000
; S/20
W000002641	72.908160	2.012000	0.000000	0.000000	0.000000
; S/21
W000002642	73.755504	1.932000	0.000000	0.000000	0.000000
; S/22
W000002643	76.078080	1.402000	0.000000	0.000000	0.000000
; SA/1
W000002644	41.229488	2.222200	0.000000	0.000000	0.000000
; SA/2
W000002645	41.558658	2.222200	0.000000	0.000000	0.000000
; SA/3
W000002646	41.919683	2.222200	0.000000	0.000000	0.000000
; SA/4
W000002647	42.110814	2.222200	0.000000	0.000000	0.000000
; T/1
W000002648	41.190279	2.222200	0.000000	0.000000	0.000000
; T/2
W000002649	42.609369	2.222200	0.000000	0.000000	0.000000
; T/3
W000002650	44.223235	2.222200	0.000000	0.000000	0.000000
; T/4
W000002651	46.085268	2.222200	0.000000	0.000000	0.000000
; T/5
W000002652	49.930209	2.222200	0.000000	0.000000	0.000000
; T/6
W000002653	51.091191	2.222200	0.000000	0.000000	0.000000
; T/7
W000002654	53.877546	2.222200	0.000000	0.000000	0.000000
; T/7A
W000002655	54.946577	2.222200	0.000000	0.000000	0.000000
; T/7B
W000002656	56.780000	1.500000	0.000000	0.000000	0.000000
; T/8
W000002657	58.153669	2.222200	0.000000	0.000000	0.000000
; T/9
W000002658	62.124353	2.222200	0.000000	0.000000	0.000000
; T/10
W000002659	64.262414	2.222200	0.000000	0.000000	0.000000
; TA/1
W000002660	46.031879	2.222200	0.000000	0.000000	0.000000
; W/10
W000002661	75.087480	1.979000	0.000000	0.000000	0.000000
; TB/1
W000002662	47.256192	0.872000	0.000000	0.000000	0.000000
; TC/1
W000002663	54.489096	1.686000	0.000000	0.000000	0.000000
; V/1
W000002664	39.492000	3.226000	0.000000	0.000000	0.000000
; V/2
W000002665	41.312592	1.405000	0.000000	0.000000	0.000000
; V/3
W000002666	42.464736	1.889000	0.000000	0.000000	0.000000
; V/4
W000002667	43.138344	1.924000	0.000000	0.000000	0.000000
; V/5
W000002668	43.302936	0.969000	0.000000	0.000000	0.000000
; V/6
W000002669	47.189136	1.228000	0.000000	0.000000	0.000000
; V/7
W000002670	49.063656	1.027000	0.000000	0.000000	0.000000
; V/8
W000002671	54.376320	1.113000	0.000000	0.000000	0.000000
; V/9
W000002672	55.686960	1.603000	0.000000	1000.000000	0.000000
; W/1
W000002673	42.266942	2.222000	0.000000	1000.000000	0.000000
; W/2
W000002674	43.013376	1.726000	0.000000	0.000000	0.000000
; W/3
W000002675	46.994064	1.381000	0.000000	0.000000	0.000000
; W/4
W000002676	50.343816	2.752000	0.000000	0.000000	0.000000
; W/5
W000002677	59.652408	1.217000	0.000000	0.000000	0.000000
; W/6
W000002678	63.185040	1.049000	0.000000	0.000000	0.000000
; W/7
W000002679	65.022984	2.222000	0.000000	0.000000	0.000000
; W/8
W000002680	67.159632	1.097000	0.000000	0.000000	0.000000
; W/9
W000002681	69.509640	1.344000	0.000000	0.000000	0.000000
; W/11
W000002682	79.107792	1.164000	0.000000	0.000000	0.000000
; Y/1
W000002683	51.350523	2.222200	0.000000	0.000000	0.000000
; Y/2
W000002684	52.437456	2.222200	0.000000	0.000000	0.000000
; CA/1
W000002685	43.140385	1.000000	0.000000	0.000000	0.000000
; CA/2
W000002686	44.069127	1.000000	0.000000	0.000000	0.000000
; CA/3
W000002687	44.703389	1.000000	0.000000	0.000000	0.000000
; CA/4
W000002688	44.861955	1.000000	0.000000	0.000000	0.000000
; CA/5
W000002689	45.315000	1.000000	0.000000	0.000000	0.000000
; CA/6
W000002690	45.609479	1.000000	0.000000	0.000000	0.000000
; CA/7
W000002691	46.550000	1.290000	0.000000	0.000000	0.000000
; CB/1
W000002692	44.454215	1.000000	0.000000	0.000000	0.000000
; CD/1
W000002693	44.930084	1.000000	0.000000	0.000000	0.000000
; CD/2
W000002694	45.320000	0.980000	0.000000	0.000000	0.000000
; EA/2
W000002696	46.920000	1.700000	0.000000	0.000000	0.000000
; EA/3
W000002697	47.470000	1.300000	0.000000	0.000000	0.000000
; EA/4
W000002698	54.500000	1.890000	0.000000	0.000000	0.000000
; EA/5
W000002699	55.150000	1.700000	0.000000	0.000000	0.000000
; EA/7
W000002700	55.800000	3.840000	0.000000	0.000000	0.000000
; EA/8
W000002701	56.250000	1.700000	0.000000	0.000000	0.000000
; EA/9
W000002702	56.470000	1.100000	0.000000	0.000000	0.000000
; EA/10
W000002703	59.730000	1.410000	0.000000	0.000000	0.000000
; EA/11
W000002704	60.750000	1.080000	0.000000	0.000000	0.000000
; EA/12
W000002705	64.040000	1.450000	0.000000	0.000000	0.000000
; EB/1
W000002706	44.980000	1.310000	0.000000	0.000000	0.000000
; EB/3
W000002707	45.800000	1.600000	0.000000	0.000000	0.000000
; EB/4
W000002708	46.423000	2.237000	0.000000	0.000000	0.000000
; EB/5
W000002709	48.820000	1.060000	0.000000	0.000000	0.000000
; EB/6
W000002710	49.760000	2.740000	0.000000	0.000000	0.000000
; EC/1
W000002711	47.640000	2.440000	0.000000	0.000000	0.000000
; EC/2
W000002712	48.240000	1.385000	0.000000	0.000000	0.000000
; EC/3
W000002713	51.160000	2.595000	0.000000	0.000000	0.000000
; EC/4
W000002714	51.580000	3.245000	0.000000	0.000000	0.000000
; EC/5
W000002715	52.015000	2.090000	0.000000	0.000000	0.000000
; ED/1
W000002716	53.865000	1.775000	0.000000	0.000000	0.000000
; EF/1
W000002717	59.000000	1.090000	0.000000	0.000000	0.000000
; DA/2
W000002719	49.930000	2.350000	0.000000	0.000000	0.000000
; DA/3
W000002720	50.210000	2.700000	0.000000	0.000000	0.000000
; DA/4
W000002721	50.545000	2.795000	0.000000	0.000000	0.000000
; DA/5
W000002722	50.840000	2.630000	0.000000	0.000000	0.000000
; DA/6
W000002723	50.980000	2.100000	0.000000	0.000000	0.000000
; DA/7
W000002724	51.350000	0.700000	0.000000	0.000000	0.000000
; DA/8
W000002725	51.720000	2.210000	0.000000	0.000000	0.000000
; DA/9
W000002726	52.180000	2.100000	0.000000	0.000000	0.000000
; DA/10
W000002727	52.730000	1.600000	0.000000	0.000000	0.000000
; DA/11
W000002728	53.320000	1.180000	0.000000	0.000000	0.000000
; DA/12
W000002729	55.240000	1.250000	0.000000	0.000000	0.000000
; DA/13
W000002730	55.670000	0.950000	0.000000	0.000000	0.000000
; DA/14
W000002731	59.450000	1.240000	0.000000	0.000000	0.000000
; DA/15
W000002732	62.860000	1.610000	0.000000	0.000000	0.000000
; DB/1
W000002733	54.630000	2.620000	0.000000	0.000000	0.000000
; DB/2
W000002734	55.915000	2.135000	0.000000	0.000000	0.000000
; DB/3
W000002735	57.845000	0.950000	0.000000	0.000000	0.000000
; DB/4
W000002736	59.775000	1.455000	0.000000	0.000000	0.000000
; DB/5
W000002737	62.440000	1.390000	0.000000	0.000000	0.000000
; DB/6
W000002738	64.290000	1.290000	0.000000	0.000000	0.000000
; DB/7
W000002739	66.865000	1.615000	0.000000	0.000000	0.000000
; DB/8
W000002740	68.250000	1.220000	0.000000	0.000000	0.000000
; DB/9
W000002741	69.340000	1.100000	0.000000	0.000000	0.000000
; DD/1
W000002742	58.116000	1.820000	0.000000	0.000000	0.000000
; DD/2
W000002743	58.455000	1.270000	0.000000	0.000000	0.000000
; DD/3
W000002744	60.195000	1.040000	0.000000	0.000000	0.000000
; DE/1
W000002745	63.545000	1.580000	0.000000	0.000000	0.000000
; DE/2
W000002746	64.435000	1.540000	0.000000	0.000000	0.000000
; DG/1
W000002748	54.760000	1.900000	0.000000	0.000000	0.000000
; DG/2
W000002749	55.160000	2.810000	0.000000	0.000000	0.000000
; DG/3
W000002750	57.500000	1.500000	0.000000	0.000000	0.000000
; DG/4
W000002751	57.724000	2.606000	0.000000	0.000000	0.000000
; DG/5
W000002752	61.980000	2.050000	0.000000	0.000000	0.000000
; DG/6
W000002753	63.385000	2.155000	0.000000	0.000000	0.000000
; DH/1
W000002754	56.460000	1.450000	0.000000	0.000000	0.000000
; DJ/1
W000002755	57.945000	2.515000	0.000000	0.000000	0.000000
; DJ/2
W000002756	62.600000	1.670000	0.000000	0.000000	0.000000
; DJ/3
W000002757	65.145000	1.855000	0.000000	0.000000	0.000000
; DJ/4
W000002758	65.830000	1.950000	0.000000	0.000000	0.000000
; DK/1
W000002759	56.430000	1.220000	0.000000	0.000000	0.000000
; DK/2
W000002760	57.440000	1.110000	0.000000	0.000000	0.000000
; DK/3
W000002761	57.870000	1.710000	0.000000	0.000000	0.000000
; DK/4
W000002762	60.310000	1.620000	0.000000	0.000000	0.000000
; DK/5
W000002763	61.880000	1.830000	0.000000	0.000000	0.000000
; DK/6
W000002764	63.740000	2.060000	0.000000	0.000000	0.000000
; DK/7
W000002765	67.640000	2.840000	0.000000	0.000000	0.000000
; DK/8
W000002766	71.050000	3.440000	0.000000	0.000000	0.000000
; DM/1
W000002767	62.570000	1.290000	0.000000	0.000000	0.000000
; DM/2
W000002768	62.970000	1.190000	0.000000	0.000000	0.000000
; DM/3
W000002769	68.200000	1.000000	0.000000	0.000000	0.000000
; DM/4
W000002770	70.690000	0.890000	0.000000	0.000000	0.000000
; DM/5
W000002771	71.350000	0.890000	0.000000	0.000000	0.000000
; DM/6
W000002772	71.240000	1.230000	0.000000	0.000000	0.000000
; DN/1
W000002773	68.790000	1.330000	0.000000	0.000000	0.000000
; DO/1
W000002774	64.960000	2.730000	0.000000	0.000000	0.000000
; DO/2
W000002775	68.450000	1.360000	0.000000	0.000000	0.000000
; DO/3
W000002776	70.080000	1.160000	0.000000	0.000000	0.000000
; DO/4
W000002777	75.020000	1.250000	0.000000	0.000000	0.000000
; DO/5
W000002778	76.970000	1.210000	0.000000	0.000000	0.000000
; DO/6
W000002779	77.180000	1.920000	0.000000	0.000000	0.000000
; DP/1
W000002780	75.560000	1.340000	0.000000	0.000000	0.000000
; EI/1
W000002782	44.120000	2.732000	0.000000	0.000000	0.000000
; EI/2
W000002783	49.130000	1.171000	0.000000	0.000000	0.000000
; EI/3
W000002784	49.900000	1.284000	0.000000	0.000000	0.000000
; EI/4
W000002785	50.300000	1.235000	0.000000	0.000000	0.000000
; EIA/1
W000002786	44.812000	1.216000	0.000000	0.000000	0.000000
; EIA/2
W000002787	46.357000	1.812000	0.000000	0.000000	0.000000
; EIA/3
W000002788	46.640000	2.081000	0.000000	0.000000	0.000000
; EIA/4
W000002789	47.601000	1.511000	0.000000	0.000000	0.000000
; EJ/1
W000002791	40.830000	2.700000	0.000000	0.000000	0.000000
; EJ/2
W000002792	40.840000	2.554000	0.000000	0.000000	0.000000
; EJ/3
W000002793	41.079000	1.575000	0.000000	0.000000	0.000000
; EJ/4
W000002794	41.220000	3.747000	0.000000	0.000000	0.000000
; EJ/5
W000002795	41.506000	1.856000	0.000000	0.000000	0.000000
; EJ/6
W000002796	41.669000	1.155000	0.000000	0.000000	0.000000
; EJ/7
W000002797	42.617000	2.555000	0.000000	0.000000	0.000000
; EK/1
W000002798	44.168000	2.179000	0.000000	0.000000	0.000000
; EL/1
W000002799	46.858000	1.086000	0.000000	0.000000	0.000000
; EL/2
W000002800	50.627000	1.406000	0.000000	0.000000	0.000000
; EL/3
W000002801	53.500000	1.278000	0.000000	0.000000	0.000000
; EL/4
W000002802	53.665000	1.269000	0.000000	0.000000	0.000000
; EL/5
W000002803	55.100000	1.346000	0.000000	1000.000000	0.000000
; EM/1
W000002804	41.500000	3.152000	0.000000	0.000000	0.000000
; EM/2
W000002805	41.969000	3.202000	0.000000	0.000000	0.000000
; EM/3
W000002806	43.500000	1.839000	0.000000	0.000000	0.000000
; EN/1
W000002807	42.510000	3.006000	0.000000	0.000000	0.000000
; EN/2
W000002808	43.552000	2.363000	0.000000	0.000000	0.000000
; EN/3
W000002809	46.342000	0.590000	0.000000	0.000000	0.000000
; EN/4
W000002810	48.285000	1.240000	0.000000	0.000000	0.000000
; ENA/1
W000002811	42.530000	2.839000	0.000000	0.000000	0.000000
; ENA/2
W000002812	42.892000	1.208000	0.000000	0.000000	0.000000
; ENA/3
W000002813	42.945000	1.084000	0.000000	0.000000	0.000000
; ENA/4
W000002814	44.140000	3.782000	0.000000	0.000000	0.000000
; ENA/5
W000002815	44.300000	3.052000	0.000000	0.000000	0.000000
; ENA/8
W000002816	45.495000	1.661000	0.000000	0.000000	0.000000
; ENA/9
W000002817	45.992000	2.333000	0.000000	0.000000	0.000000
; ENA/12
W000002818	49.080000	2.988000	0.000000	0.000000	0.000000
; ENA/13
W000002819	50.826000	2.022000	0.000000	0.000000	0.000000
; ENB/1
W000002820	46.380000	1.932000	0.000000	0.000000	0.000000
; END/2
W000002821	50.820000	1.439000	0.000000	0.000000	0.000000
; END/3
W000002822	54.117000	1.658000	0.000000	0.000000	0.000000
; ENC/4
W000002824	54.711000	1.070000	0.000000	0.000000	0.000000
; HA/1
W000014912	43.756000	2.244000	0.000000	0.000000	0.000000
; HA/2
W000014913	44.566000	2.434000	0.000000	0.000000	0.000000
; HA/3
W000014914	44.756000	2.744000	0.000000	0.000000	0.000000
; HA/4
W000014915	44.767100	3.233000	0.000000	0.000000	0.000000
; HA/5
W000014916	47.430000	3.267000	0.000000	0.000000	0.000000
; HA/6
W000014917	47.510000	3.464000	0.000000	0.000000	0.000000
; HA/7
W000014918	48.230000	3.607000	0.000000	0.000000	0.000000
; HA/8
W000014919	48.755000	1.219000	0.000000	0.000000	0.000000
; HA/9
W000014920	49.400000	1.324000	0.000000	0.000000	0.000000
; HA/10
W000014921	51.200000	1.264000	0.000000	0.000000	0.000000
; HA/11
W000014922	55.720000	1.823000	0.000000	0.000000	0.000000
; HA/12
W000014923	56.520000	1.237000	0.000000	0.000000	0.000000
; HB/1
W000014924	48.670000	1.932000	0.000000	0.000000	0.000000
; HB/2
W000014925	49.360000	1.492000	0.000000	0.000000	0.000000
; HB/3
W000014926	49.983000	1.078000	0.000000	0.000000	0.000000
; HB/4
W000014927	57.470000	1.430000	0.000000	0.000000	0.000000
; HB/5
W000014928	59.200000	1.453000	0.000000	0.000000	0.000000
; HB/6
W000014929	63.220000	1.041000	0.000000	0.000000	0.000000
; HC/1
W000014930	49.360000	2.213000	0.000000	0.000000	0.000000