[OPTIONS]
;Option and Files Scenario Set: BASE
FLOW_UNITS		GPM
INFILTRATION		HORTON
FLOW_ROUTING		DYNWAVE
LINK_OFFSETS		DEPTH
MIN_SLOPE		0.000000
ALLOW_PONDING		NO
SKIP_STEADY_STATE 	NO
IGNORE_RAINFALL		NO
IGNORE_SNOWMELT		NO
IGNORE_GROUNDWATER	NO
IGNORE_QUALITY		NO

START_DATE		01/01/2002
START_TIME		00:00:00
REPORT_START_DATE	01/01/2002
REPORT_START_TIME	00:00
END_DATE		01/01/2002
END_TIME		24:00:00
SWEEP_START		01/01
SWEEP_END		12/31
DRY_DAYS		5.000000
REPORT_STEP		00:05:00
WET_STEP		01:00:00
DRY_STEP		23:00:00
ROUTING_STEP		300

INERTIAL_DAMPING	NONE
NORMAL_FLOW_LIMITED	BOTH
FORCE_MAIN_EQUATION	H-W
VARIABLE_STEP		0.750000
LENGTHENING_STEP	0
MIN_SURFAREA		0.000000
MINIMUM_STEP		0.5


[FILES]

[RAINGAGES]

[HYDROGRAPHS]

[TEMPERATURE]

[ADJUSTMENTS]

[SUBCATCHMENTS]

[SUBAREAS]

[INFILTRATION]

[AQUIFERS]

[GROUNDWATER]

[GWF]

[SNOWPACKS]

[JUNCTIONS]
; New Manhole
12	387.500000	0.000000	0.000000	1000.000000	0.000000
; New Manhole
14	396.620000	0.000000	0.000000	1000.000000	0.000000
; New Manhole
16	352.000000	0.000000	0.000000	1000.000000	0.000000
; New Manhole
20	405.740000	0.260000	0.000000	0.000000	0.000000
; New Manhole
22	350.200000	4.800000	0.000000	0.000000	0.000000
; New Manhole
24	370.000000	11.500000	0.000000	0.000000	0.000000

[OUTFALLS]
; New Manhole
18	405.000000	FREE	NO

[DIVIDERS]

[STORAGE]
; New Wet Well
9000	361.240000	8.850000	6.350000	FUNCTIONAL	0.000000	0.000000	28.274334	0.000000	0.000000
; New Wet Well
9002	349.000000	5.000000	2.000000	FUNCTIONAL	0.000000	0.000000	60.077082	0.000000	0.000000

[CONDUITS]
; New Pipe
11	12	14	2100.000000	0.010000	0.000000	0.000000	0.000000	0.000000
; New Pipe
13	16	14	1000.000000	0.010000	0.000000	0.000000	0.000000	0.000000
; New Pipe
15	14	20	2800.000000	0.010000	0.000000	0.000000	0.000000	0.000000
; New Pipe
17	20	18	10.000000	0.013000	0.000000	0.000000	0.000000	0.000000
; New Pipe
19	22	9002	10.000000	0.013000	0.000000	0.000000	0.000000	0.000000
; New Pipe
21	24	9000	10.000000	0.013000	0.000000	0.000000	0.000000	0.000000

[PUMPS]
; New Pump
5000	9000	12	PC_5000	ON	0.000000	0.000000
; New Pump
5002	9002	16	PC_5002	ON	0.000000	0.000000

[ORIFICES]

[WEIRS]

[XSECTIONS]
11	FORCE_MAIN	0.666667	130.000000	0.000000	0.000000	1	0
13	FORCE_MAIN	0.666667	130.000000	0.000000	0.000000	1	0
15	FORCE_MAIN	0.666667	130.000000	0.000000	0.000000	1	0
17	CIRCULAR	1.000000	0.000000	0.000000	0.000000	1	0
19	CIRCULAR	1.000000	0.000000	0.000000	0.000000	1	0
21	CIRCULAR	1.000000	0.000000	0.000000	0.000000	1	0

[TRANSECTS]

[LOSSES]
11	0.000000	130.000000	0.000000	NO	0.000000
13	0.000000	130.000000	0.000000	NO	0.000000
15	0.000000	130.000000	0.000000	NO	0.000000
17	0.000000	0.013000	0.000000	NO	0.000000
19	0.000000	0.013000	0.000000	NO	0.000000
21	0.000000	0.013000	0.000000	NO	0.000000

[CONTROLS]

[POLLUTANTS]

[LANDUSES]

[COVERAGES]

[BUILDUP]

[WASHOFF]

[TREATMENT]

[INFLOWS]

[DWF]
22	FLOW	400.000000	""	""	""	""
24	FLOW	500.000000	""	""	""	""

[RDII]

[LOADINGS]

[CURVES]
; 
PC_5000	PUMP3	52.000000	640.000000
PC_5000	63.000000	440.000000
PC_5000	89.000000	0.000000
; 
PC_5002	PUMP3	40.000000	570.000000
PC_5002	60.700000	230.000000
PC_5002	75.400000	0.000000

[TIMESERIES]

[PATTERNS]

[REPORT]
;Report Option Set: BASE, Base Simulation Report
INPUT NO
CONTINUITY YES
FLOWSTATS YES
CONTROLS NO
AVERAGES NO
SUBCATCHMENTS  ALL
NODES  ALL
LINKS  ALL

[COORDINATES]
12	75.161290	367.096774
14	256.451613	365.806452
16	259.032258	219.354839
18	448.709677	363.870968
20	428.709677	364.838710
22	258.387097	159.032258
24	9.354839	367.419355
9000	30.000000	366.451613
9002	259.032258	185.806452


[POLYGONS]

[VERTICES]

11	257.096774	366.451613

[SYMBOLS]

[MAP]
DIMENSIONS	-12.612903	148.612903	470.677419	377.838710

