[OPTIONS]
;Option and Files Scenario Set: DESIGN_STORMS
FLOW_UNITS	MGD
INFILTRATION	HORTON
FLOW_ROUTING	DYNWAVE
ALLOW_PONDING	NO
DRY_DAYS	5.000000
SKIP_STEADY_STATE 	NO
IGNORE_RAINFALL	NO
IGNORE_SNOWMELT	NO
IGNORE_GROUNDWATER	NO
IGNORE_QUALITY	NO
FORCE_MAIN_EQUATION	H-W
LINK_OFFSETS	DEPTH
MIN_SLOPE	0.000000
START_DATE	01/21/2009
START_TIME	00:00
END_DATE	01/29/2009
END_TIME	23:00
REPORT_START_DATE	01/21/2009
REPORT_START_TIME	00:00
SWEEP_START	01/01
SWEEP_END	12/31
WET_STEP	00:10:00
DRY_STEP	00:10:00
ROUTING_STEP	30
REPORT_STEP	00:15:00
INERTIAL_DAMPING	NONE
VARIABLE_STEP	0.750000
MINIMUM_STEP	0.5
LENGTHENING_STEP	10
MIN_SURFAREA	0.000000
NORMAL_FLOW_LIMITED	BOTH

[FILES]

[RAINGAGES]
RAINGAGE-3	VOLUME	0.500000	1.000000	TIMESERIES	2YR_24HR_STORM		
RG1	VOLUME	0.500000	1.000000	TIMESERIES	2YR_24HR_STORM		
RG10	VOLUME	0.500000	1.000000	TIMESERIES	2YR_24HR_STORM		
RG100	VOLUME	0.500000	1.000000	TIMESERIES	2YR_24HR_STORM		
RG101	VOLUME	0.500000	1.000000	TIMESERIES	2YR_24HR_STORM		
RG102	VOLUME	0.500000	1.000000	TIMESERIES	2YR_24HR_STORM		
RG103	VOLUME	0.500000	1.000000	TIMESERIES	2YR_24HR_STORM		
RG104	VOLUME	0.500000	1.000000	TIMESERIES	2YR_24HR_STORM		
RG105	VOLUME	0.500000	1.000000	TIMESERIES	2YR_24HR_STORM		
RG106	VOLUME	0.500000	1.000000	TIMESERIES	2YR_24HR_STORM		
RG107	VOLUME	0.500000	1.000000	TIMESERIES	2YR_24HR_STORM		
RG108	VOLUME	0.500000	1.000000	TIMESERIES	2YR_24HR_STORM		
RG109	VOLUME	0.500000	1.000000	TIMESERIES	2YR_24HR_STORM		
RG11	VOLUME	0.500000	1.000000	TIMESERIES	2YR_24HR_STORM		
RG110	VOLUME	0.500000	1.000000	TIMESERIES	2YR_24HR_STORM		
RG111	VOLUME	0.500000	1.000000	TIMESERIES	2YR_24HR_STORM		
RG112	VOLUME	0.500000	1.000000	TIMESERIES	2YR_24HR_STORM		
RG113	VOLUME	0.500000	1.000000	TIMESERIES	2YR_24HR_STORM		
RG114	VOLUME	0.500000	1.000000	TIMESERIES	2YR_24HR_STORM		
RG12	VOLUME	0.500000	1.000000	TIMESERIES	2YR_24HR_STORM		
RG126	VOLUME	0.500000	1.000000	TIMESERIES	2YR_24HR_STORM		
RG127	VOLUME	0.500000	1.000000	TIMESERIES	2YR_24HR_STORM		
RG128	VOLUME	0.500000	1.000000	TIMESERIES	2YR_24HR_STORM		
RG129	VOLUME	0.500000	1.000000	TIMESERIES	2YR_24HR_STORM		
RG13	VOLUME	0.500000	1.000000	TIMESERIES	2YR_24HR_STORM		
RG130	VOLUME	0.500000	1.000000	TIMESERIES	2YR_24HR_STORM		
RG131	VOLUME	0.500000	1.000000	TIMESERIES	2YR_24HR_STORM		
RG132	VOLUME	0.500000	1.000000	TIMESERIES	2YR_24HR_STORM		
RG133	VOLUME	0.500000	1.000000	TIMESERIES	2YR_24HR_STORM		
RG134	VOLUME	0.500000	1.000000	TIMESERIES	2YR_24HR_STORM		
RG135	VOLUME	0.500000	1.000000	TIMESERIES	2YR_24HR_STORM		
RG137	VOLUME	0.500000	1.000000	TIMESERIES	2YR_24HR_STORM		
RG138	VOLUME	0.500000	1.000000	TIMESERIES	2YR_24HR_STORM		
RG139	VOLUME	0.500000	1.000000	TIMESERIES	2YR_24HR_STORM		
RG14	VOLUME	0.500000	1.000000	TIMESERIES	2YR_24HR_STORM		
RG140	VOLUME	0.500000	1.000000	TIMESERIES	2YR_24HR_STORM		
RG141	VOLUME	0.500000	1.000000	TIMESERIES	2YR_24HR_STORM		
RG143	VOLUME	0.500000	1.000000	TIMESERIES	2YR_24HR_STORM		
RG147	VOLUME	0.500000	1.000000	TIMESERIES	2YR_24HR_STORM		
RG148	VOLUME	0.500000	1.000000	TIMESERIES	2YR_24HR_STORM		
RG149	VOLUME	0.500000	1.000000	TIMESERIES	2YR_24HR_STORM		
RG15	VOLUME	0.500000	1.000000	TIMESERIES	2YR_24HR_STORM		
RG150	VOLUME	0.500000	1.000000	TIMESERIES	2YR_24HR_STORM		
RG151	VOLUME	0.500000	1.000000	TIMESERIES	2YR_24HR_STORM		
RG152	VOLUME	0.500000	1.000000	TIMESERIES	2YR_24HR_STORM		
RG153	VOLUME	0.500000	1.000000	TIMESERIES	2YR_24HR_STORM		
RG154	VOLUME	0.500000	1.000000	TIMESERIES	2YR_24HR_STORM		
RG155	VOLUME	0.500000	1.000000	TIMESERIES	2YR_24HR_STORM		
RG156	VOLUME	0.500000	1.000000	TIMESERIES	2YR_24HR_STORM		
RG157	VOLUME	0.500000	1.000000	TIMESERIES	2YR_24HR_STORM		
RG158	VOLUME	0.500000	1.000000	TIMESERIES	2YR_24HR_STORM		
RG16	VOLUME	0.500000	1.000000	TIMESERIES	2YR_24HR_STORM		
RG160	VOLUME	0.500000	1.000000	TIMESERIES	2YR_24HR_STORM		
RG161	VOLUME	0.500000	1.000000	TIMESERIES	2YR_24HR_STORM		
RG162	VOLUME	0.500000	1.000000	TIMESERIES	2YR_24HR_STORM		
RG163	VOLUME	0.500000	1.000000	TIMESERIES	2YR_24HR_STORM		
RG164	VOLUME	0.500000	1.000000	TIMESERIES	2YR_24HR_STORM		
RG165	VOLUME	0.500000	1.000000	TIMESERIES	2YR_24HR_STORM		
RG166	VOLUME	0.500000	1.000000	TIMESERIES	2YR_24HR_STORM		
RG167	VOLUME	0.500000	1.000000	TIMESERIES	2YR_24HR_STORM		
RG17	VOLUME	0.500000	1.000000	TIMESERIES	2YR_24HR_STORM		
RG173	VOLUME	0.500000	1.000000	TIMESERIES	2YR_24HR_STORM		
RG174	VOLUME	0.500000	1.000000	TIMESERIES	2YR_24HR_STORM		
RG175	VOLUME	0.500000	1.000000	TIMESERIES	2YR_24HR_STORM		
RG176	VOLUME	0.500000	1.000000	TIMESERIES	2YR_24HR_STORM		
RG177	VOLUME	0.500000	1.000000	TIMESERIES	2YR_24HR_STORM		
RG178	VOLUME	0.500000	1.000000	TIMESERIES	2YR_24HR_STORM		
RG179	VOLUME	0.500000	1.000000	TIMESERIES	2YR_24HR_STORM		
RG18	VOLUME	0.500000	1.000000	TIMESERIES	2YR_24HR_STORM		
RG180	VOLUME	0.500000	1.000000	TIMESERIES	2YR_24HR_STORM		
RG182	VOLUME	0.500000	1.000000	TIMESERIES	2YR_24HR_STORM		
RG183	VOLUME	0.500000	1.000000	TIMESERIES	2YR_24HR_STORM		
RG184	VOLUME	0.500000	1.000000	TIMESERIES	2YR_24HR_STORM		
RG185	VOLUME	0.500000	1.000000	TIMESERIES	2YR_24HR_STORM		
RG186	VOLUME	0.500000	1.000000	TIMESERIES	2YR_24HR_STORM		
RG187	VOLUME	0.500000	1.000000	TIMESERIES	2YR_24HR_STORM		
RG188	VOLUME	0.500000	1.000000	TIMESERIES	2YR_24HR_STORM		
RG189	VOLUME	0.500000	1.000000	TIMESERIES	2YR_24HR_STORM		
RG19	VOLUME	0.500000	1.000000	TIMESERIES	2YR_24HR_STORM		
RG190	VOLUME	0.500000	1.000000	TIMESERIES	2YR_24HR_STORM		
RG191	VOLUME	0.500000	1.000000	TIMESERIES	2YR_24HR_STORM		
RG192	VOLUME	0.500000	1.000000	TIMESERIES	2YR_24HR_STORM		
RG193	VOLUME	0.500000	1.000000	TIMESERIES	2YR_24HR_STORM		
RG194	VOLUME	0.500000	1.000000	TIMESERIES	2YR_24HR_STORM		
RG195	VOLUME	0.500000	1.000000	TIMESERIES	2YR_24HR_STORM		
RG196	VOLUME	0.500000	1.000000	TIMESERIES	2YR_24HR_STORM		
RG197	VOLUME	0.500000	1.000000	TIMESERIES	2YR_24HR_STORM		
RG198	VOLUME	0.500000	1.000000	TIMESERIES	2YR_24HR_STORM		
RG199	VOLUME	0.500000	1.000000	TIMESERIES	2YR_24HR_STORM		
RG2	VOLUME	0.500000	1.000000	TIMESERIES	2YR_24HR_STORM		
RG20	VOLUME	0.500000	1.000000	TIMESERIES	2YR_24HR_STORM		
RG200	VOLUME	0.500000	1.000000	TIMESERIES	2YR_24HR_STORM		
RG201	VOLUME	0.500000	1.000000	TIMESERIES	2YR_24HR_STORM		
RG202	VOLUME	0.500000	1.000000	TIMESERIES	2YR_24HR_STORM		
RG203	VOLUME	0.500000	1.000000	TIMESERIES	2YR_24HR_STORM		
RG204	VOLUME	0.500000	1.000000	TIMESERIES	2YR_24HR_STORM		
RG205	VOLUME	0.500000	1.000000	TIMESERIES	2YR_24HR_STORM		
RG206	VOLUME	0.500000	1.000000	TIMESERIES	2YR_24HR_STORM		
RG207	VOLUME	0.500000	1.000000	TIMESERIES	2YR_24HR_STORM		
RG208	VOLUME	0.500000	1.000000	TIMESERIES	2YR_24HR_STORM		
RG209	VOLUME	0.500000	1.000000	TIMESERIES	2YR_24HR_STORM		
RG21	VOLUME	0.500000	1.000000	TIMESERIES	2YR_24HR_STORM		
RG210	VOLUME	0.500000	1.000000	TIMESERIES	2YR_24HR_STORM		
RG211	VOLUME	0.500000	1.000000	TIMESERIES	2YR_24HR_STORM		
RG212	VOLUME	0.500000	1.000000	TIMESERIES	2YR_24HR_STORM		
RG213	VOLUME	0.500000	1.000000	TIMESERIES	2YR_24HR_STORM		
RG214	VOLUME	0.500000	1.000000	TIMESERIES	2YR_24HR_STORM		
RG215	VOLUME	0.500000	1.000000	TIMESERIES	2YR_24HR_STORM		
RG216	VOLUME	0.500000	1.000000	TIMESERIES	2YR_24HR_STORM		
RG217	VOLUME	0.500000	1.000000	TIMESERIES	2YR_24HR_STORM		
RG218	VOLUME	0.500000	1.000000	TIMESERIES	2YR_24HR_STORM		
RG219	VOLUME	0.500000	1.000000	TIMESERIES	2YR_24HR_STORM		
RG22	VOLUME	0.500000	1.000000	TIMESERIES	2YR_24HR_STORM		
RG224	VOLUME	0.500000	1.000000	TIMESERIES	2YR_24HR_STORM		
RG225	VOLUME	0.500000	1.000000	TIMESERIES	2YR_24HR_STORM		
RG226	VOLUME	0.500000	1.000000	TIMESERIES	2YR_24HR_STORM		
RG227	VOLUME	0.500000	1.000000	TIMESERIES	2YR_24HR_STORM		
RG228	VOLUME	0.500000	1.000000	TIMESERIES	2YR_24HR_STORM		
RG229	VOLUME	0.500000	1.000000	TIMESERIES	2YR_24HR_STORM		
RG23	VOLUME	0.500000	1.000000	TIMESERIES	2YR_24HR_STORM		
RG230	VOLUME	0.500000	1.000000	TIMESERIES	2YR_24HR_STORM		
RG231	VOLUME	0.500000	1.000000	TIMESERIES	2YR_24HR_STORM		
RG235	VOLUME	0.500000	1.000000	TIMESERIES	2YR_24HR_STORM		
RG236	VOLUME	0.500000	1.000000	TIMESERIES	2YR_24HR_STORM		
RG237	VOLUME	0.500000	1.000000	TIMESERIES	2YR_24HR_STORM		
RG238	VOLUME	0.500000	1.000000	TIMESERIES	2YR_24HR_STORM		
RG239	VOLUME	0.500000	1.000000	TIMESERIES	2YR_24HR_STORM		
RG24	VOLUME	0.500000	1.000000	TIMESERIES	2YR_24HR_STORM		
RG240	VOLUME	0.500000	1.000000	TIMESERIES	2YR_24HR_STORM		
RG25	VOLUME	0.500000	1.000000	TIMESERIES	2YR_24HR_STORM		
RG26	VOLUME	0.500000	1.000000	TIMESERIES	2YR_24HR_STORM		
RG27	VOLUME	0.500000	1.000000	TIMESERIES	2YR_24HR_STORM		
RG28	VOLUME	0.500000	1.000000	TIMESERIES	2YR_24HR_STORM		
RG29	VOLUME	0.500000	1.000000	TIMESERIES	2YR_24HR_STORM		
RG3	VOLUME	0.500000	1.000000	TIMESERIES	2YR_24HR_STORM		
RG30	VOLUME	0.500000	1.000000	TIMESERIES	2YR_24HR_STORM		
RG31	VOLUME	0.500000	1.000000	TIMESERIES	2YR_24HR_STORM		
RG32	VOLUME	0.500000	1.000000	TIMESERIES	2YR_24HR_STORM		
RG33	VOLUME	0.500000	1.000000	TIMESERIES	2YR_24HR_STORM		
RG34	VOLUME	0.500000	1.000000	TIMESERIES	2YR_24HR_STORM		
RG35	VOLUME	0.500000	1.000000	TIMESERIES	2YR_24HR_STORM		
RG36	VOLUME	0.500000	1.000000	TIMESERIES	2YR_24HR_STORM		
RG38	VOLUME	0.500000	1.000000	TIMESERIES	2YR_24HR_STORM		
RG4	VOLUME	0.500000	1.000000	TIMESERIES	2YR_24HR_STORM		
RG41	VOLUME	0.500000	1.000000	TIMESERIES	2YR_24HR_STORM		
RG42	VOLUME	0.500000	1.000000	TIMESERIES	2YR_24HR_STORM		
RG43	VOLUME	0.500000	1.000000	TIMESERIES	2YR_24HR_STORM		
RG44	VOLUME	0.500000	1.000000	TIMESERIES	2YR_24HR_STORM		
RG45	VOLUME	0.500000	1.000000	TIMESERIES	2YR_24HR_STORM		
RG46	VOLUME	0.500000	1.000000	TIMESERIES	2YR_24HR_STORM		
RG47	VOLUME	0.500000	1.000000	TIMESERIES	2YR_24HR_STORM		
RG48	VOLUME	0.500000	1.000000	TIMESERIES	2YR_24HR_STORM		
RG49	VOLUME	0.500000	1.000000	TIMESERIES	2YR_24HR_STORM		
RG5	VOLUME	0.500000	1.000000	TIMESERIES	2YR_24HR_STORM		
RG50	VOLUME	0.500000	1.000000	TIMESERIES	2YR_24HR_STORM		
RG51	VOLUME	0.500000	1.000000	TIMESERIES	2YR_24HR_STORM		
RG52	VOLUME	0.500000	1.000000	TIMESERIES	2YR_24HR_STORM		
RG53	VOLUME	0.500000	1.000000	TIMESERIES	2YR_24HR_STORM		
RG54	VOLUME	0.500000	1.000000	TIMESERIES	2YR_24HR_STORM		
RG55	VOLUME	0.500000	1.000000	TIMESERIES	2YR_24HR_STORM		
RG56	VOLUME	0.500000	1.000000	TIMESERIES	2YR_24HR_STORM		
RG57	VOLUME	0.500000	1.000000	TIMESERIES	2YR_24HR_STORM		
RG58	VOLUME	0.500000	1.000000	TIMESERIES	2YR_24HR_STORM		
RG59	VOLUME	0.500000	1.000000	TIMESERIES	2YR_24HR_STORM		
RG6	VOLUME	0.500000	1.000000	TIMESERIES	2YR_24HR_STORM		
RG60	VOLUME	0.500000	1.000000	TIMESERIES	2YR_24HR_STORM		
RG61	VOLUME	0.500000	1.000000	TIMESERIES	2YR_24HR_STORM		
RG62	VOLUME	0.500000	1.000000	TIMESERIES	2YR_24HR_STORM		
RG63	VOLUME	0.500000	1.000000	TIMESERIES	2YR_24HR_STORM		
RG64	VOLUME	0.500000	1.000000	TIMESERIES	2YR_24HR_STORM		
RG67	VOLUME	0.500000	1.000000	TIMESERIES	2YR_24HR_STORM		
RG68	VOLUME	0.500000	1.000000	TIMESERIES	2YR_24HR_STORM		
RG69	VOLUME	0.500000	1.000000	TIMESERIES	2YR_24HR_STORM		
RG7	VOLUME	0.500000	1.000000	TIMESERIES	2YR_24HR_STORM		
RG70	VOLUME	0.500000	1.000000	TIMESERIES	2YR_24HR_STORM		
RG71	VOLUME	0.500000	1.000000	TIMESERIES	2YR_24HR_STORM		
RG72	VOLUME	0.500000	1.000000	TIMESERIES	2YR_24HR_STORM		
RG73	VOLUME	0.500000	1.000000	TIMESERIES	2YR_24HR_STORM		
RG74	VOLUME	0.500000	1.000000	TIMESERIES	2YR_24HR_STORM		
RG75	VOLUME	0.500000	1.000000	TIMESERIES	2YR_24HR_STORM		
RG76	VOLUME	0.500000	1.000000	TIMESERIES	2YR_24HR_STORM		
RG77	VOLUME	0.500000	1.000000	TIMESERIES	2YR_24HR_STORM		
RG78	VOLUME	0.500000	1.000000	TIMESERIES	2YR_24HR_STORM		
RG79	VOLUME	0.500000	1.000000	TIMESERIES	2YR_24HR_STORM		
RG8	VOLUME	0.500000	1.000000	TIMESERIES	2YR_24HR_STORM		
RG80	VOLUME	0.500000	1.000000	TIMESERIES	2YR_24HR_STORM		
RG82	VOLUME	0.500000	1.000000	TIMESERIES	2YR_24HR_STORM		
RG83	VOLUME	0.500000	1.000000	TIMESERIES	2YR_24HR_STORM		
RG84	VOLUME	0.500000	1.000000	TIMESERIES	2YR_24HR_STORM		
RG85	VOLUME	0.500000	1.000000	TIMESERIES	2YR_24HR_STORM		
RG86	VOLUME	0.500000	1.000000	TIMESERIES	2YR_24HR_STORM		
RG87	VOLUME	0.500000	1.000000	TIMESERIES	2YR_24HR_STORM		
RG88	VOLUME	0.500000	1.000000	TIMESERIES	2YR_24HR_STORM		
RG89	VOLUME	0.500000	1.000000	TIMESERIES	2YR_24HR_STORM		
RG9	VOLUME	0.500000	1.000000	TIMESERIES	2YR_24HR_STORM		
RG90	VOLUME	0.500000	1.000000	TIMESERIES	2YR_24HR_STORM		
RG91	VOLUME	0.500000	1.000000	TIMESERIES	2YR_24HR_STORM		
RG92	VOLUME	0.500000	1.000000	TIMESERIES	2YR_24HR_STORM		
RG95	VOLUME	0.500000	1.000000	TIMESERIES	2YR_24HR_STORM		
RG96	VOLUME	0.500000	1.000000	TIMESERIES	2YR_24HR_STORM		
RG97	VOLUME	0.500000	1.000000	TIMESERIES	2YR_24HR_STORM		
RG98	VOLUME	0.500000	1.000000	TIMESERIES	2YR_24HR_STORM		
RG99	VOLUME	0.500000	1.000000	TIMESERIES	2YR_24HR_STORM		

[HYDROGRAPHS]
; 
HYDROGRH-1	RAINGAGE-3
HYDROGRH-1	ALL	Short	0.000000	1.000000	1.600000	0.000000	0.000000	0.000000
HYDROGRH-1	ALL	Medium	0.020000	2.000000	17.000000	0.000000	0.000000	0.000000
HYDROGRH-1	ALL	Long	0.100000	3.000000	26.000000	0.000000	0.000000	0.000000
; 
HYDROGRH-1001	RG152
HYDROGRH-1001	ALL	Short	0.003000	3.000000	2.500000	0.000000	0.000000	0.000000
HYDROGRH-1001	ALL	Medium	0.021000	4.000000	7.500000	0.000000	0.000000	0.000000
HYDROGRH-1001	ALL	Long	0.047000	5.000000	9.000000	0.000000	0.000000	0.000000
; 
HYDROGRH-1011	RG153
HYDROGRH-1011	ALL	Short	0.003000	3.000000	2.500000	0.000000	0.000000	0.000000
HYDROGRH-1011	ALL	Medium	0.021000	4.000000	7.500000	0.000000	0.000000	0.000000
HYDROGRH-1011	ALL	Long	0.047000	5.000000	9.000000	0.000000	0.000000	0.000000
; 
HYDROGRH-1013	RG135
HYDROGRH-1013	ALL	Short	0.003000	3.000000	2.500000	0.000000	0.000000	0.000000
HYDROGRH-1013	ALL	Medium	0.021000	4.000000	7.500000	0.000000	0.000000	0.000000
HYDROGRH-1013	ALL	Long	0.047000	5.000000	9.000000	0.000000	0.000000	0.000000
; 
HYDROGRH-1029	RG154
HYDROGRH-1029	ALL	Short	0.003000	3.000000	2.500000	0.000000	0.000000	0.000000
HYDROGRH-1029	ALL	Medium	0.021000	4.000000	7.500000	0.000000	0.000000	0.000000
HYDROGRH-1029	ALL	Long	0.047000	5.000000	9.000000	0.000000	0.000000	0.000000
; 
HYDROGRH-1055	RG156
HYDROGRH-1055	ALL	Short	0.003000	3.000000	2.500000	0.000000	0.000000	0.000000
HYDROGRH-1055	ALL	Medium	0.021000	4.000000	7.500000	0.000000	0.000000	0.000000
HYDROGRH-1055	ALL	Long	0.047000	5.000000	9.000000	0.000000	0.000000	0.000000
; 
HYDROGRH-1057	RG155
HYDROGRH-1057	ALL	Short	0.003000	3.000000	2.500000	0.000000	0.000000	0.000000
HYDROGRH-1057	ALL	Medium	0.021000	4.000000	7.500000	0.000000	0.000000	0.000000
HYDROGRH-1057	ALL	Long	0.047000	5.000000	9.000000	0.000000	0.000000	0.000000
; 
HYDROGRH-1081	RG158
HYDROGRH-1081	ALL	Short	0.003000	3.000000	2.500000	0.000000	0.000000	0.000000
HYDROGRH-1081	ALL	Medium	0.021000	4.000000	7.500000	0.000000	0.000000	0.000000
HYDROGRH-1081	ALL	Long	0.047000	5.000000	9.000000	0.000000	0.000000	0.000000
; 
HYDROGRH-1095	RG137
HYDROGRH-1095	ALL	Short	0.003000	3.000000	2.500000	0.000000	0.000000	0.000000
HYDROGRH-1095	ALL	Medium	0.021000	4.000000	7.500000	0.000000	0.000000	0.000000
HYDROGRH-1095	ALL	Long	0.047000	5.000000	9.000000	0.000000	0.000000	0.000000
; 
HYDROGRH-1106	RG154
HYDROGRH-1106	ALL	Short	0.017000	3.000000	7.000000	0.000000	0.000000	0.000000
HYDROGRH-1106	ALL	Medium	0.014000	4.000000	12.000000	0.000000	0.000000	0.000000
HYDROGRH-1106	ALL	Long	0.019000	5.000000	13.000000	0.000000	0.000000	0.000000
; 
HYDROGRH-1125	RG157
HYDROGRH-1125	ALL	Short	0.017000	3.000000	7.000000	0.000000	0.000000	0.000000
HYDROGRH-1125	ALL	Medium	0.014000	4.000000	12.000000	0.000000	0.000000	0.000000
HYDROGRH-1125	ALL	Long	0.019000	5.000000	13.000000	0.000000	0.000000	0.000000
; 
HYDROGRH-1156	RG160
HYDROGRH-1156	ALL	Short	0.003000	3.000000	1.800000	0.000000	0.000000	0.000000
HYDROGRH-1156	ALL	Medium	0.002000	4.000000	6.000000	0.000000	0.000000	0.000000
HYDROGRH-1156	ALL	Long	0.030000	5.000000	9.000000	0.000000	0.000000	0.000000
; 
HYDROGRH-1158	RG161
HYDROGRH-1158	ALL	Short	0.003000	3.000000	1.800000	0.000000	0.000000	0.000000
HYDROGRH-1158	ALL	Medium	0.002000	4.000000	6.000000	0.000000	0.000000	0.000000
HYDROGRH-1158	ALL	Long	0.030000	5.000000	9.000000	0.000000	0.000000	0.000000
; 
HYDROGRH-1166	RG162
HYDROGRH-1166	ALL	Short	0.003000	3.000000	1.800000	0.000000	0.000000	0.000000
HYDROGRH-1166	ALL	Medium	0.002000	4.000000	6.000000	0.000000	0.000000	0.000000
HYDROGRH-1166	ALL	Long	0.030000	5.000000	9.000000	0.000000	0.000000	0.000000
; 
HYDROGRH-1168	RG163
HYDROGRH-1168	ALL	Short	0.003000	3.000000	1.800000	0.000000	0.000000	0.000000
HYDROGRH-1168	ALL	Medium	0.002000	4.000000	6.000000	0.000000	0.000000	0.000000
HYDROGRH-1168	ALL	Long	0.030000	5.000000	9.000000	0.000000	0.000000	0.000000
; 
HYDROGRH-117	RG36
HYDROGRH-117	ALL	Short	0.001000	3.000000	1.000000	0.000000	0.000000	0.000000
HYDROGRH-117	ALL	Medium	0.002000	4.000000	2.000000	0.000000	0.000000	0.000000
HYDROGRH-117	ALL	Long	0.004000	5.000000	3.000000	0.000000	0.000000	0.000000
; 
HYDROGRH-1186	RG164
HYDROGRH-1186	ALL	Short	0.003000	3.000000	1.800000	0.000000	0.000000	0.000000
HYDROGRH-1186	ALL	Medium	0.002000	4.000000	6.000000	0.000000	0.000000	0.000000
HYDROGRH-1186	ALL	Long	0.030000	5.000000	9.000000	0.000000	0.000000	0.000000
; 
HYDROGRH-1194	RG164
HYDROGRH-1194	ALL	Short	0.003000	3.000000	1.800000	0.000000	0.000000	0.000000
HYDROGRH-1194	ALL	Medium	0.002000	4.000000	6.000000	0.000000	0.000000	0.000000
HYDROGRH-1194	ALL	Long	0.030000	5.000000	9.000000	0.000000	0.000000	0.000000
; 
HYDROGRH-1200	RG165
HYDROGRH-1200	ALL	Short	0.003000	3.000000	1.800000	0.000000	0.000000	0.000000
HYDROGRH-1200	ALL	Medium	0.002000	4.000000	6.000000	0.000000	0.000000	0.000000
HYDROGRH-1200	ALL	Long	0.030000	5.000000	9.000000	0.000000	0.000000	0.000000
; 
HYDROGRH-1212	RG166
HYDROGRH-1212	ALL	Short	0.003000	3.000000	1.800000	0.000000	0.000000	0.000000
HYDROGRH-1212	ALL	Medium	0.002000	4.000000	6.000000	0.000000	0.000000	0.000000
HYDROGRH-1212	ALL	Long	0.030000	5.000000	9.000000	0.000000	0.000000	0.000000
; 
HYDROGRH-1220	RG167
HYDROGRH-1220	ALL	Short	0.003000	3.000000	1.800000	0.000000	0.000000	0.000000
HYDROGRH-1220	ALL	Medium	0.002000	4.000000	6.000000	0.000000	0.000000	0.000000
HYDROGRH-1220	ALL	Long	0.030000	5.000000	9.000000	0.000000	0.000000	0.000000
; 
HYDROGRH-1226	RG135
HYDROGRH-1226	ALL	Short	0.003000	3.000000	1.800000	0.000000	0.000000	0.000000
HYDROGRH-1226	ALL	Medium	0.002000	4.000000	6.000000	0.000000	0.000000	0.000000
HYDROGRH-1226	ALL	Long	0.030000	5.000000	9.000000	0.000000	0.000000	0.000000
; 
HYDROGRH-1228	RG167
HYDROGRH-1228	ALL	Short	0.003000	3.000000	1.800000	0.000000	0.000000	0.000000
HYDROGRH-1228	ALL	Medium	0.002000	4.000000	6.000000	0.000000	0.000000	0.000000
HYDROGRH-1228	ALL	Long	0.030000	5.000000	9.000000	0.000000	0.000000	0.000000
; 
HYDROGRH-1247	RG41
HYDROGRH-1247	ALL	Short	0.002000	3.000000	5.000000	0.000000	0.000000	0.000000
HYDROGRH-1247	ALL	Medium	0.006000	4.000000	10.000000	0.000000	0.000000	0.000000
HYDROGRH-1247	ALL	Long	0.023000	5.000000	11.000000	0.000000	0.000000	0.000000
; 
HYDROGRH-1255	RG42
HYDROGRH-1255	ALL	Short	0.002000	3.000000	5.000000	0.000000	0.000000	0.000000
HYDROGRH-1255	ALL	Medium	0.006000	4.000000	10.000000	0.000000	0.000000	0.000000
HYDROGRH-1255	ALL	Long	0.023000	5.000000	11.000000	0.000000	0.000000	0.000000
; 
HYDROGRH-1257	RG25
HYDROGRH-1257	ALL	Short	0.002000	3.000000	5.000000	0.000000	0.000000	0.000000
HYDROGRH-1257	ALL	Medium	0.006000	4.000000	10.000000	0.000000	0.000000	0.000000
HYDROGRH-1257	ALL	Long	0.023000	5.000000	11.000000	0.000000	0.000000	0.000000
; 
HYDROGRH-1263	RG43
HYDROGRH-1263	ALL	Short	0.002000	3.000000	5.000000	0.000000	0.000000	0.000000
HYDROGRH-1263	ALL	Medium	0.006000	4.000000	10.000000	0.000000	0.000000	0.000000
HYDROGRH-1263	ALL	Long	0.023000	5.000000	11.000000	0.000000	0.000000	0.000000
; 
HYDROGRH-1279	RG44
HYDROGRH-1279	ALL	Short	0.002000	3.000000	5.000000	0.000000	0.000000	0.000000
HYDROGRH-1279	ALL	Medium	0.006000	4.000000	10.000000	0.000000	0.000000	0.000000
HYDROGRH-1279	ALL	Long	0.023000	5.000000	11.000000	0.000000	0.000000	0.000000
; 
HYDROGRH-129	RG114
HYDROGRH-129	ALL	Short	0.000000	1.000000	1.600000	0.000000	0.000000	0.000000
HYDROGRH-129	ALL	Medium	0.020000	2.000000	17.000000	0.000000	0.000000	0.000000
HYDROGRH-129	ALL	Long	0.100000	3.000000	26.000000	0.000000	0.000000	0.000000
; 
HYDROGRH-1301	RG45
HYDROGRH-1301	ALL	Short	0.002000	3.000000	5.000000	0.000000	0.000000	0.000000
HYDROGRH-1301	ALL	Medium	0.006000	4.000000	10.000000	0.000000	0.000000	0.000000
HYDROGRH-1301	ALL	Long	0.023000	5.000000	11.000000	0.000000	0.000000	0.000000
; 
HYDROGRH-131	RG38
HYDROGRH-131	ALL	Short	0.001000	3.000000	1.000000	0.000000	0.000000	0.000000
HYDROGRH-131	ALL	Medium	0.002000	4.000000	2.000000	0.000000	0.000000	0.000000
HYDROGRH-131	ALL	Long	0.004000	5.000000	3.000000	0.000000	0.000000	0.000000
; 
HYDROGRH-1321	RG46
HYDROGRH-1321	ALL	Short	0.002000	3.000000	5.000000	0.000000	0.000000	0.000000
HYDROGRH-1321	ALL	Medium	0.006000	4.000000	10.000000	0.000000	0.000000	0.000000
HYDROGRH-1321	ALL	Long	0.023000	5.000000	11.000000	0.000000	0.000000	0.000000
; 
HYDROGRH-1323	RG35
HYDROGRH-1323	ALL	Short	0.002000	3.000000	5.000000	0.000000	0.000000	0.000000
HYDROGRH-1323	ALL	Medium	0.006000	4.000000	10.000000	0.000000	0.000000	0.000000
HYDROGRH-1323	ALL	Long	0.023000	5.000000	11.000000	0.000000	0.000000	0.000000
; 
HYDROGRH-1351	RG48
HYDROGRH-1351	ALL	Short	0.002000	3.000000	5.000000	0.000000	0.000000	0.000000
HYDROGRH-1351	ALL	Medium	0.006000	4.000000	10.000000	0.000000	0.000000	0.000000
HYDROGRH-1351	ALL	Long	0.023000	5.000000	11.000000	0.000000	0.000000	0.000000
; 
HYDROGRH-1357	RG38
HYDROGRH-1357	ALL	Short	0.002000	3.000000	5.000000	0.000000	0.000000	0.000000
HYDROGRH-1357	ALL	Medium	0.006000	4.000000	10.000000	0.000000	0.000000	0.000000
HYDROGRH-1357	ALL	Long	0.023000	5.000000	11.000000	0.000000	0.000000	0.000000
; 
HYDROGRH-1359	RG49
HYDROGRH-1359	ALL	Short	0.002000	3.000000	5.000000	0.000000	0.000000	0.000000
HYDROGRH-1359	ALL	Medium	0.006000	4.000000	10.000000	0.000000	0.000000	0.000000
HYDROGRH-1359	ALL	Long	0.023000	5.000000	11.000000	0.000000	0.000000	0.000000
; 
HYDROGRH-1365	RG229
HYDROGRH-1365	ALL	Short	0.002000	3.000000	5.000000	0.000000	0.000000	0.000000
HYDROGRH-1365	ALL	Medium	0.006000	4.000000	10.000000	0.000000	0.000000	0.000000
HYDROGRH-1365	ALL	Long	0.023000	5.000000	11.000000	0.000000	0.000000	0.000000
; 
HYDROGRH-1369	RG230
HYDROGRH-1369	ALL	Short	0.002000	3.000000	5.000000	0.000000	0.000000	0.000000
HYDROGRH-1369	ALL	Medium	0.006000	4.000000	10.000000	0.000000	0.000000	0.000000
HYDROGRH-1369	ALL	Long	0.023000	5.000000	11.000000	0.000000	0.000000	0.000000
; 
HYDROGRH-1371	RG231
HYDROGRH-1371	ALL	Short	0.002000	3.000000	5.000000	0.000000	0.000000	0.000000
HYDROGRH-1371	ALL	Medium	0.006000	4.000000	10.000000	0.000000	0.000000	0.000000
HYDROGRH-1371	ALL	Long	0.023000	5.000000	11.000000	0.000000	0.000000	0.000000
; 
HYDROGRH-1379	RG53
HYDROGRH-1379	ALL	Short	0.001000	3.000000	4.000000	0.000000	0.000000	0.000000
HYDROGRH-1379	ALL	Medium	0.002000	4.000000	9.000000	0.000000	0.000000	0.000000
HYDROGRH-1379	ALL	Long	0.000000	5.000000	9.000000	0.000000	0.000000	0.000000
; 
HYDROGRH-1381	RG51
HYDROGRH-1381	ALL	Short	0.001000	3.000000	4.000000	0.000000	0.000000	0.000000
HYDROGRH-1381	ALL	Medium	0.002000	4.000000	9.000000	0.000000	0.000000	0.000000
HYDROGRH-1381	ALL	Long	0.000000	5.000000	9.000000	0.000000	0.000000	0.000000
; 
HYDROGRH-1383	RG50
HYDROGRH-1383	ALL	Short	0.001000	3.000000	4.000000	0.000000	0.000000	0.000000
HYDROGRH-1383	ALL	Medium	0.002000	4.000000	9.000000	0.000000	0.000000	0.000000
HYDROGRH-1383	ALL	Long	0.000000	5.000000	9.000000	0.000000	0.000000	0.000000
; 
HYDROGRH-1387	RG231
HYDROGRH-1387	ALL	Short	0.002000	3.000000	5.000000	0.000000	0.000000	0.000000
HYDROGRH-1387	ALL	Medium	0.006000	4.000000	10.000000	0.000000	0.000000	0.000000
HYDROGRH-1387	ALL	Long	0.023000	5.000000	11.000000	0.000000	0.000000	0.000000
; 
HYDROGRH-1393	RG52
HYDROGRH-1393	ALL	Short	0.001000	3.000000	4.000000	0.000000	0.000000	0.000000
HYDROGRH-1393	ALL	Medium	0.002000	4.000000	9.000000	0.000000	0.000000	0.000000
HYDROGRH-1393	ALL	Long	0.000000	5.000000	9.000000	0.000000	0.000000	0.000000
; 
HYDROGRH-1395	RG51
HYDROGRH-1395	ALL	Short	0.001000	3.000000	4.000000	0.000000	0.000000	0.000000
HYDROGRH-1395	ALL	Medium	0.002000	4.000000	9.000000	0.000000	0.000000	0.000000
HYDROGRH-1395	ALL	Long	0.000000	5.000000	9.000000	0.000000	0.000000	0.000000
; 
HYDROGRH-1405	RG55
HYDROGRH-1405	ALL	Short	0.001000	3.000000	4.000000	0.000000	0.000000	0.000000
HYDROGRH-1405	ALL	Medium	0.002000	4.000000	9.000000	0.000000	0.000000	0.000000
HYDROGRH-1405	ALL	Long	0.000000	5.000000	9.000000	0.000000	0.000000	0.000000
; 
HYDROGRH-1407	RG54
HYDROGRH-1407	ALL	Short	0.001000	3.000000	4.000000	0.000000	0.000000	0.000000
HYDROGRH-1407	ALL	Medium	0.002000	4.000000	9.000000	0.000000	0.000000	0.000000
HYDROGRH-1407	ALL	Long	0.000000	5.000000	9.000000	0.000000	0.000000	0.000000
; 
HYDROGRH-1415	RG56
HYDROGRH-1415	ALL	Short	0.001000	3.000000	4.000000	0.000000	0.000000	0.000000
HYDROGRH-1415	ALL	Medium	0.002000	4.000000	9.000000	0.000000	0.000000	0.000000
HYDROGRH-1415	ALL	Long	0.000000	5.000000	9.000000	0.000000	0.000000	0.000000
; 
HYDROGRH-1421	RG56
HYDROGRH-1421	ALL	Short	0.001000	3.000000	4.000000	0.000000	0.000000	0.000000
HYDROGRH-1421	ALL	Medium	0.002000	4.000000	9.000000	0.000000	0.000000	0.000000
HYDROGRH-1421	ALL	Long	0.000000	5.000000	9.000000	0.000000	0.000000	0.000000
; 
HYDROGRH-1431	RG57
HYDROGRH-1431	ALL	Short	0.001000	3.000000	4.000000	0.000000	0.000000	0.000000
HYDROGRH-1431	ALL	Medium	0.002000	4.000000	9.000000	0.000000	0.000000	0.000000
HYDROGRH-1431	ALL	Long	0.000000	5.000000	9.000000	0.000000	0.000000	0.000000
; 
HYDROGRH-1435	RG59
HYDROGRH-1435	ALL	Short	0.001000	3.000000	4.000000	0.000000	0.000000	0.000000
HYDROGRH-1435	ALL	Medium	0.002000	4.000000	9.000000	0.000000	0.000000	0.000000
HYDROGRH-1435	ALL	Long	0.000000	5.000000	9.000000	0.000000	0.000000	0.000000
; 
HYDROGRH-1437	RG58
HYDROGRH-1437	ALL	Short	0.001000	3.000000	4.000000	0.000000	0.000000	0.000000
HYDROGRH-1437	ALL	Medium	0.002000	4.000000	9.000000	0.000000	0.000000	0.000000
HYDROGRH-1437	ALL	Long	0.000000	5.000000	9.000000	0.000000	0.000000	0.000000
; 
HYDROGRH-1439	RG60
HYDROGRH-1439	ALL	Short	0.001000	3.000000	4.000000	0.000000	0.000000	0.000000
HYDROGRH-1439	ALL	Medium	0.002000	4.000000	9.000000	0.000000	0.000000	0.000000
HYDROGRH-1439	ALL	Long	0.000000	5.000000	9.000000	0.000000	0.000000	0.000000
; 
HYDROGRH-1445	RG61
HYDROGRH-1445	ALL	Short	0.001000	3.000000	4.000000	0.000000	0.000000	0.000000
HYDROGRH-1445	ALL	Medium	0.002000	4.000000	9.000000	0.000000	0.000000	0.000000
HYDROGRH-1445	ALL	Long	0.000000	5.000000	9.000000	0.000000	0.000000	0.000000
; 
HYDROGRH-1449	RG62
HYDROGRH-1449	ALL	Short	0.001000	3.000000	4.000000	0.000000	0.000000	0.000000
HYDROGRH-1449	ALL	Medium	0.002000	4.000000	9.000000	0.000000	0.000000	0.000000
HYDROGRH-1449	ALL	Long	0.000000	5.000000	9.000000	0.000000	0.000000	0.000000
; 
HYDROGRH-1451	RG63
HYDROGRH-1451	ALL	Short	0.001000	3.000000	4.000000	0.000000	0.000000	0.000000
HYDROGRH-1451	ALL	Medium	0.002000	4.000000	9.000000	0.000000	0.000000	0.000000
HYDROGRH-1451	ALL	Long	0.000000	5.000000	9.000000	0.000000	0.000000	0.000000
; 
HYDROGRH-1455	RG64
HYDROGRH-1455	ALL	Short	0.001000	3.000000	4.000000	0.000000	0.000000	0.000000
HYDROGRH-1455	ALL	Medium	0.002000	4.000000	9.000000	0.000000	0.000000	0.000000
HYDROGRH-1455	ALL	Long	0.000000	5.000000	9.000000	0.000000	0.000000	0.000000
; 
HYDROGRH-1459	RG64
HYDROGRH-1459	ALL	Short	0.001000	3.000000	4.000000	0.000000	0.000000	0.000000
HYDROGRH-1459	ALL	Medium	0.002000	4.000000	9.000000	0.000000	0.000000	0.000000
HYDROGRH-1459	ALL	Long	0.000000	5.000000	9.000000	0.000000	0.000000	0.000000
; 
HYDROGRH-1465	RG64
HYDROGRH-1465	ALL	Short	0.001000	3.000000	4.000000	0.000000	0.000000	0.000000
HYDROGRH-1465	ALL	Medium	0.002000	4.000000	9.000000	0.000000	0.000000	0.000000
HYDROGRH-1465	ALL	Long	0.000000	5.000000	9.000000	0.000000	0.000000	0.000000
; 
HYDROGRH-1467	RG64
HYDROGRH-1467	ALL	Short	0.001000	3.000000	4.000000	0.000000	0.000000	0.000000
HYDROGRH-1467	ALL	Medium	0.002000	4.000000	9.000000	0.000000	0.000000	0.000000
HYDROGRH-1467	ALL	Long	0.000000	5.000000	9.000000	0.000000	0.000000	0.000000
; 
HYDROGRH-1477	RG34
HYDROGRH-1477	ALL	Short	0.002000	3.000000	5.000000	0.000000	0.000000	0.000000
HYDROGRH-1477	ALL	Medium	0.006000	4.000000	10.000000	0.000000	0.000000	0.000000
HYDROGRH-1477	ALL	Long	0.023000	5.000000	11.000000	0.000000	0.000000	0.000000
; 
HYDROGRH-150	RG23
HYDROGRH-150	ALL	Short	0.001000	3.000000	1.000000	0.000000	0.000000	0.000000
HYDROGRH-150	ALL	Medium	0.002000	4.000000	2.000000	0.000000	0.000000	0.000000
HYDROGRH-150	ALL	Long	0.004000	5.000000	3.000000	0.000000	0.000000	0.000000
; 
HYDROGRH-1501	RG47
HYDROGRH-1501	ALL	Short	0.002000	3.000000	5.000000	0.000000	0.000000	0.000000
HYDROGRH-1501	ALL	Medium	0.006000	4.000000	10.000000	0.000000	0.000000	0.000000
HYDROGRH-1501	ALL	Long	0.023000	5.000000	11.000000	0.000000	0.000000	0.000000
; 
HYDROGRH-151	RG9
HYDROGRH-151	ALL	Short	0.001000	3.000000	1.000000	0.000000	0.000000	0.000000
HYDROGRH-151	ALL	Medium	0.002000	4.000000	2.000000	0.000000	0.000000	0.000000
HYDROGRH-151	ALL	Long	0.004000	5.000000	3.000000	0.000000	0.000000	0.000000
; 
HYDROGRH-1526	RG135
HYDROGRH-1526	ALL	Short	0.003000	3.000000	2.500000	0.000000	0.000000	0.000000
HYDROGRH-1526	ALL	Medium	0.021000	4.000000	7.500000	0.000000	0.000000	0.000000
HYDROGRH-1526	ALL	Long	0.047000	5.000000	9.000000	0.000000	0.000000	0.000000
; 
HYDROGRH-1528	RG137
HYDROGRH-1528	ALL	Short	0.003000	3.000000	2.500000	0.000000	0.000000	0.000000
HYDROGRH-1528	ALL	Medium	0.021000	4.000000	7.500000	0.000000	0.000000	0.000000
HYDROGRH-1528	ALL	Long	0.047000	5.000000	9.000000	0.000000	0.000000	0.000000
; 
HYDROGRH-1530	RG135
HYDROGRH-1530	ALL	Short	0.003000	3.000000	2.500000	0.000000	0.000000	0.000000
HYDROGRH-1530	ALL	Medium	0.021000	4.000000	7.500000	0.000000	0.000000	0.000000
HYDROGRH-1530	ALL	Long	0.047000	5.000000	9.000000	0.000000	0.000000	0.000000
; 
HYDROGRH-1532	RG135
HYDROGRH-1532	ALL	Short	0.003000	3.000000	2.500000	0.000000	0.000000	0.000000
HYDROGRH-1532	ALL	Medium	0.021000	4.000000	7.500000	0.000000	0.000000	0.000000