[TITLE]
;;Project Title/Notes

[OPTIONS]
;;Option             Value
FLOW_UNITS           MGD
INFILTRATION         HORTON
FLOW_ROUTING         DYNWAVE
LINK_OFFSETS         DEPTH
MIN_SLOPE            0
ALLOW_PONDING        NO
SKIP_STEADY_STATE    NO

IGNORE_RAINFALL      YES
START_DATE           04/27/2009
START_TIME           00:00:00
REPORT_START_DATE    04/27/2009
REPORT_START_TIME    00:00:00
END_DATE             04/30/2009
END_TIME             23:00:00
SWEEP_START          01/01
SWEEP_END            12/31
DRY_DAYS             5.000000
REPORT_STEP          00:15:00
WET_STEP             00:05:00
DRY_STEP             00:05:00
ROUTING_STEP         0:00:30 

INERTIAL_DAMPING     NONE
NORMAL_FLOW_LIMITED  BOTH
FORCE_MAIN_EQUATION  H-W
VARIABLE_STEP        0.75
LENGTHENING_STEP     10
MIN_SURFAREA         12.557
MAX_TRIALS           8
HEAD_TOLERANCE       0.005
SYS_FLOW_TOL         5
LAT_FLOW_TOL         5
MINIMUM_STEP         0.5
THREADS              1

[EVAPORATION]
;;Data Source    Parameters
;;-------------- ----------------
CONSTANT         0.0
DRY_ONLY         NO

[RAINGAGES]
;;Name           Format    Interval SCF      Source    
;;-------------- --------- ------ ------ ----------
; New Raingage
RAINGAGE-3       VOLUME    0.500000 1.000000 TIMESERIES 2YR_24HR_STORM  
RG1              VOLUME    0.500000 1.000000 TIMESERIES 2YR_24HR_STORM  
RG10             VOLUME    0.500000 1.000000 TIMESERIES 2YR_24HR_STORM  
RG100            VOLUME    0.500000 1.000000 TIMESERIES 2YR_24HR_STORM  
RG101            VOLUME    0.500000 1.000000 TIMESERIES 2YR_24HR_STORM  
RG102            VOLUME    0.500000 1.000000 TIMESERIES 2YR_24HR_STORM  
RG103            VOLUME    0.500000 1.000000 TIMESERIES 2YR_24HR_STORM  
RG104            VOLUME    0.500000 1.000000 TIMESERIES 2YR_24HR_STORM  
RG105            VOLUME    0.500000 1.000000 TIMESERIES 2YR_24HR_STORM  
RG106            VOLUME    0.500000 1.000000 TIMESERIES 2YR_24HR_STORM  
RG107            VOLUME    0.500000 1.000000 TIMESERIES 2YR_24HR_STORM  
RG108            VOLUME    0.500000 1.000000 TIMESERIES 2YR_24HR_STORM  
RG109            VOLUME    0.500000 1.000000 TIMESERIES 2YR_24HR_STORM  
RG11             VOLUME    0.500000 1.000000 TIMESERIES 2YR_24HR_STORM  
RG110            VOLUME    0.500000 1.000000 TIMESERIES 2YR_24HR_STORM  
RG111            VOLUME    0.500000 1.000000 TIMESERIES 2YR_24HR_STORM  
RG112            VOLUME    0.500000 1.000000 TIMESERIES 2YR_24HR_STORM  
RG113            VOLUME    0.500000 1.000000 TIMESERIES 2YR_24HR_STORM  
RG114            VOLUME    0.500000 1.000000 TIMESERIES 2YR_24HR_STORM  
RG12             VOLUME    0.500000 1.000000 TIMESERIES 2YR_24HR_STORM  
RG126            VOLUME    0.500000 1.000000 TIMESERIES 2YR_24HR_STORM  
RG127            VOLUME    0.500000 1.000000 TIMESERIES 2YR_24HR_STORM  
RG128            VOLUME    0.500000 1.000000 TIMESERIES 2YR_24HR_STORM  
RG129            VOLUME    0.500000 1.000000 TIMESERIES 2YR_24HR_STORM  
RG13             VOLUME    0.500000 1.000000 TIMESERIES 2YR_24HR_STORM  
RG130            VOLUME    0.500000 1.000000 TIMESERIES 2YR_24HR_STORM  
RG131            VOLUME    0.500000 1.000000 TIMESERIES 2YR_24HR_STORM  
RG132            VOLUME    0.500000 1.000000 TIMESERIES 2YR_24HR_STORM  
RG133            VOLUME    0.500000 1.000000 TIMESERIES 2YR_24HR_STORM  
RG134            VOLUME    0.500000 1.000000 TIMESERIES 2YR_24HR_STORM  
RG135            VOLUME    0.500000 1.000000 TIMESERIES 2YR_24HR_STORM  
RG137            VOLUME    0.500000 1.000000 TIMESERIES 2YR_24HR_STORM  
RG138            VOLUME    0.500000 1.000000 TIMESERIES 2YR_24HR_STORM  
RG139            VOLUME    0.500000 1.000000 TIMESERIES 2YR_24HR_STORM  
RG14             VOLUME    0.500000 1.000000 TIMESERIES 2YR_24HR_STORM  
RG140            VOLUME    0.500000 1.000000 TIMESERIES 2YR_24HR_STORM  
RG141            VOLUME    0.500000 1.000000 TIMESERIES 2YR_24HR_STORM  
RG143            VOLUME    0.500000 1.000000 TIMESERIES 2YR_24HR_STORM  
RG147            VOLUME    0.500000 1.000000 TIMESERIES 2YR_24HR_STORM  
RG148            VOLUME    0.500000 1.000000 TIMESERIES 2YR_24HR_STORM  
RG149            VOLUME    0.500000 1.000000 TIMESERIES 2YR_24HR_STORM  
RG15             VOLUME    0.500000 1.000000 TIMESERIES 2YR_24HR_STORM  
RG150            VOLUME    0.500000 1.000000 TIMESERIES 2YR_24HR_STORM  
RG151            VOLUME    0.500000 1.000000 TIMESERIES 2YR_24HR_STORM  
RG152            VOLUME    0.500000 1.000000 TIMESERIES 2YR_24HR_STORM  
RG153            VOLUME    0.500000 1.000000 TIMESERIES 2YR_24HR_STORM  
RG154            VOLUME    0.500000 1.000000 TIMESERIES 2YR_24HR_STORM  
RG155            VOLUME    0.500000 1.000000 TIMESERIES 2YR_24HR_STORM  
RG156            VOLUME    0.500000 1.000000 TIMESERIES 2YR_24HR_STORM  
RG157            VOLUME    0.500000 1.000000 TIMESERIES 2YR_24HR_STORM  
RG158            VOLUME    0.500000 1.000000 TIMESERIES 2YR_24HR_STORM  
RG16             VOLUME    0.500000 1.000000 TIMESERIES 2YR_24HR_STORM  
RG160            VOLUME    0.500000 1.000000 TIMESERIES 2YR_24HR_STORM  
RG161            VOLUME    0.500000 1.000000 TIMESERIES 2YR_24HR_STORM  
RG162            VOLUME    0.500000 1.000000 TIMESERIES 2YR_24HR_STORM  
RG163            VOLUME    0.500000 1.000000 TIMESERIES 2YR_24HR_STORM  
RG164            VOLUME    0.500000 1.000000 TIMESERIES 2YR_24HR_STORM  
RG165            VOLUME    0.500000 1.000000 TIMESERIES 2YR_24HR_STORM  
RG166            VOLUME    0.500000 1.000000 TIMESERIES 2YR_24HR_STORM  
RG167            VOLUME    0.500000 1.000000 TIMESERIES 2YR_24HR_STORM  
RG17             VOLUME    0.500000 1.000000 TIMESERIES 2YR_24HR_STORM  
RG173            VOLUME    0.500000 1.000000 TIMESERIES 2YR_24HR_STORM  
RG174            VOLUME    0.500000 1.000000 TIMESERIES 2YR_24HR_STORM  
RG175            VOLUME    0.500000 1.000000 TIMESERIES 2YR_24HR_STORM  
RG176            VOLUME    0.500000 1.000000 TIMESERIES 2YR_24HR_STORM  
RG177            VOLUME    0.500000 1.000000 TIMESERIES 2YR_24HR_STORM  
RG178            VOLUME    0.500000 1.000000 TIMESERIES 2YR_24HR_STORM  
RG179            VOLUME    0.500000 1.000000 TIMESERIES 2YR_24HR_STORM  
RG18             VOLUME    0.500000 1.000000 TIMESERIES 2YR_24HR_STORM  
RG180            VOLUME    0.500000 1.000000 TIMESERIES 2YR_24HR_STORM  
RG182            VOLUME    0.500000 1.000000 TIMESERIES 2YR_24HR_STORM  
RG183            VOLUME    0.500000 1.000000 TIMESERIES 2YR_24HR_STORM  
RG184            VOLUME    0.500000 1.000000 TIMESERIES 2YR_24HR_STORM  
RG185            VOLUME    0.500000 1.000000 TIMESERIES 2YR_24HR_STORM  
RG186            VOLUME    0.500000 1.000000 TIMESERIES 2YR_24HR_STORM  
RG187            VOLUME    0.500000 1.000000 TIMESERIES 2YR_24HR_STORM  
RG188            VOLUME    0.500000 1.000000 TIMESERIES 2YR_24HR_STORM  
RG189            VOLUME    0.500000 1.000000 TIMESERIES 2YR_24HR_STORM  
RG19             VOLUME    0.500000 1.000000 TIMESERIES 2YR_24HR_STORM  
RG190            VOLUME    0.500000 1.000000 TIMESERIES 2YR_24HR_STORM  
RG191            VOLUME    0.500000 1.000000 TIMESERIES 2YR_24HR_STORM  
RG192            VOLUME    0.500000 1.000000 TIMESERIES 2YR_24HR_STORM  
RG193            VOLUME    0.500000 1.000000 TIMESERIES 2YR_24HR_STORM  
RG194            VOLUME    0.500000 1.000000 TIMESERIES 2YR_24HR_STORM  
RG195            VOLUME    0.500000 1.000000 TIMESERIES 2YR_24HR_STORM  
RG196            VOLUME    0.500000 1.000000 TIMESERIES 2YR_24HR_STORM  
RG197            VOLUME    0.500000 1.000000 TIMESERIES 2YR_24HR_STORM  
RG198            VOLUME    0.500000 1.000000 TIMESERIES 2YR_24HR_STORM  
RG199            VOLUME    0.500000 1.000000 TIMESERIES 2YR_24HR_STORM  
RG2              VOLUME    0.500000 1.000000 TIMESERIES 2YR_24HR_STORM  
RG20             VOLUME    0.500000 1.000000 TIMESERIES 2YR_24HR_STORM  
RG200            VOLUME    0.500000 1.000000 TIMESERIES 2YR_24HR_STORM  
RG201            VOLUME    0.500000 1.000000 TIMESERIES 2YR_24HR_STORM  
RG202            VOLUME    0.500000 1.000000 TIMESERIES 2YR_24HR_STORM  
RG203            VOLUME    0.500000 1.000000 TIMESERIES 2YR_24HR_STORM  
RG204            VOLUME    0.500000 1.000000 TIMESERIES 2YR_24HR_STORM  
RG205            VOLUME    0.500000 1.000000 TIMESERIES 2YR_24HR_STORM  
RG206            VOLUME    0.500000 1.000000 TIMESERIES 2YR_24HR_STORM  
RG207            VOLUME    0.500000 1.000000 TIMESERIES 2YR_24HR_STORM  
RG208            VOLUME    0.500000 1.000000 TIMESERIES 2YR_24HR_STORM  
RG209            VOLUME    0.500000 1.000000 TIMESERIES 2YR_24HR_STORM  
RG21             VOLUME    0.500000 1.000000 TIMESERIES 2YR_24HR_STORM  
RG210            VOLUME    0.500000 1.000000 TIMESERIES 2YR_24HR_STORM  
RG211            VOLUME    0.500000 1.000000 TIMESERIES 2YR_24HR_STORM  
RG212            VOLUME    0.500000 1.000000 TIMESERIES 2YR_24HR_STORM  
RG213            VOLUME    0.500000 1.000000 TIMESERIES 2YR_24HR_STORM  
RG214            VOLUME    0.500000 1.000000 TIMESERIES 2YR_24HR_STORM  
RG215            VOLUME    0.500000 1.000000 TIMESERIES 2YR_24HR_STORM  
RG216            VOLUME    0.500000 1.000000 TIMESERIES 2YR_24HR_STORM  
RG217            VOLUME    0.500000 1.000000 TIMESERIES 2YR_24HR_STORM  
RG218            VOLUME    0.500000 1.000000 TIMESERIES 2YR_24HR_STORM  
RG219            VOLUME    0.500000 1.000000 TIMESERIES 2YR_24HR_STORM  
RG22             VOLUME    0.500000 1.000000 TIMESERIES 2YR_24HR_STORM  
RG224            VOLUME    0.500000 1.000000 TIMESERIES 2YR_24HR_STORM  
RG225            VOLUME    0.500000 1.000000 TIMESERIES 2YR_24HR_STORM  
RG226            VOLUME    0.500000 1.000000 TIMESERIES 2YR_24HR_STORM  
RG227            VOLUME    0.500000 1.000000 TIMESERIES 2YR_24HR_STORM  
RG228            VOLUME    0.500000 1.000000 TIMESERIES 2YR_24HR_STORM  
RG229            VOLUME    0.500000 1.000000 TIMESERIES 2YR_24HR_STORM  
RG23             VOLUME    0.500000 1.000000 TIMESERIES 2YR_24HR_STORM  
RG230            VOLUME    0.500000 1.000000 TIMESERIES 2YR_24HR_STORM  
RG231            VOLUME    0.500000 1.000000 TIMESERIES 2YR_24HR_STORM  
RG235            VOLUME    0.500000 1.000000 TIMESERIES 2YR_24HR_STORM  
RG236            VOLUME    0.500000 1.000000 TIMESERIES 2YR_24HR_STORM  
RG237            VOLUME    0.500000 1.000000 TIMESERIES 2YR_24HR_STORM  
RG238            VOLUME    0.500000 1.000000 TIMESERIES 2YR_24HR_STORM  
RG239            VOLUME    0.500000 1.000000 TIMESERIES 2YR_24HR_STORM  
RG24             VOLUME    0.500000 1.000000 TIMESERIES 2YR_24HR_STORM  
RG240            VOLUME    0.500000 1.000000 TIMESERIES 2YR_24HR_STORM  
RG25             VOLUME    0.500000 1.000000 TIMESERIES 2YR_24HR_STORM  
RG26             VOLUME    0.500000 1.000000 TIMESERIES 2YR_24HR_STORM  
RG27             VOLUME    0.500000 1.000000 TIMESERIES 2YR_24HR_STORM  
RG28             VOLUME    0.500000 1.000000 TIMESERIES 2YR_24HR_STORM  
RG29             VOLUME    0.500000 1.000000 TIMESERIES 2YR_24HR_STORM  
RG3              VOLUME    0.500000 1.000000 TIMESERIES 2YR_24HR_STORM  
RG30             VOLUME    0.500000 1.000000 TIMESERIES 2YR_24HR_STORM  
RG31             VOLUME    0.500000 1.000000 TIMESERIES 2YR_24HR_STORM  
RG32             VOLUME    0.500000 1.000000 TIMESERIES 2YR_24HR_STORM  
RG33             VOLUME    0.500000 1.000000 TIMESERIES 2YR_24HR_STORM  
RG34             VOLUME    0.500000 1.000000 TIMESERIES 2YR_24HR_STORM  
RG35             VOLUME    0.500000 1.000000 TIMESERIES 2YR_24HR_STORM  
RG36             VOLUME    0.500000 1.000000 TIMESERIES 2YR_24HR_STORM  
RG38             VOLUME    0.500000 1.000000 TIMESERIES 2YR_24HR_STORM  
RG4              VOLUME    0.500000 1.000000 TIMESERIES 2YR_24HR_STORM  
RG41             VOLUME    0.500000 1.000000 TIMESERIES 2YR_24HR_STORM  
RG42             VOLUME    0.500000 1.000000 TIMESERIES 2YR_24HR_STORM  
RG43             VOLUME    0.500000 1.000000 TIMESERIES 2YR_24HR_STORM  
RG44             VOLUME    0.500000 1.000000 TIMESERIES 2YR_24HR_STORM  
RG45             VOLUME    0.500000 1.000000 TIMESERIES 2YR_24HR_STORM  
RG46             VOLUME    0.500000 1.000000 TIMESERIES 2YR_24HR_STORM  
RG47             VOLUME    0.500000 1.000000 TIMESERIES 2YR_24HR_STORM  
RG48             VOLUME    0.500000 1.000000 TIMESERIES 2YR_24HR_STORM  
RG49             VOLUME    0.500000 1.000000 TIMESERIES 2YR_24HR_STORM  
RG5              VOLUME    0.500000 1.000000 TIMESERIES 2YR_24HR_STORM  
RG50             VOLUME    0.500000 1.000000 TIMESERIES 2YR_24HR_STORM  
RG51             VOLUME    0.500000 1.000000 TIMESERIES 2YR_24HR_STORM  
RG52             VOLUME    0.500000 1.000000 TIMESERIES 2YR_24HR_STORM  
RG53             VOLUME    0.500000 1.000000 TIMESERIES 2YR_24HR_STORM  
RG54             VOLUME    0.500000 1.000000 TIMESERIES 2YR_24HR_STORM  
RG55             VOLUME    0.500000 1.000000 TIMESERIES 2YR_24HR_STORM  
RG56             VOLUME    0.500000 1.000000 TIMESERIES 2YR_24HR_STORM  
RG57             VOLUME    0.500000 1.000000 TIMESERIES 2YR_24HR_STORM  
RG58             VOLUME    0.500000 1.000000 TIMESERIES 2YR_24HR_STORM  
RG59             VOLUME    0.500000 1.000000 TIMESERIES 2YR_24HR_STORM  
RG6              VOLUME    0.500000 1.000000 TIMESERIES 2YR_24HR_STORM  
RG60             VOLUME    0.500000 1.000000 TIMESERIES 2YR_24HR_STORM  
RG61             VOLUME    0.500000 1.000000 TIMESERIES 2YR_24HR_STORM  
RG62             VOLUME    0.500000 1.000000 TIMESERIES 2YR_24HR_STORM  
RG63             VOLUME    0.500000 1.000000 TIMESERIES 2YR_24HR_STORM  
RG64             VOLUME    0.500000 1.000000 TIMESERIES 2YR_24HR_STORM  
RG67             VOLUME    0.500000 1.000000 TIMESERIES 2YR_24HR_STORM  
RG68             VOLUME    0.500000 1.000000 TIMESERIES 2YR_24HR_STORM  
RG69             VOLUME    0.500000 1.000000 TIMESERIES 2YR_24HR_STORM  
RG7              VOLUME    0.500000 1.000000 TIMESERIES 2YR_24HR_STORM  
RG70             VOLUME    0.500000 1.000000 TIMESERIES 2YR_24HR_STORM  
RG71             VOLUME    0.500000 1.000000 TIMESERIES 2YR_24HR_STORM  
RG72             VOLUME    0.500000 1.000000 TIMESERIES 2YR_24HR_STORM  
RG73             VOLUME    0.500000 1.000000 TIMESERIES 2YR_24HR_STORM  
RG74             VOLUME    0.500000 1.000000 TIMESERIES 2YR_24HR_STORM  
RG75             VOLUME    0.500000 1.000000 TIMESERIES 2YR_24HR_STORM  
RG76             VOLUME    0.500000 1.000000 TIMESERIES 2YR_24HR_STORM  
RG77             VOLUME    0.500000 1.000000 TIMESERIES 2YR_24HR_STORM  
RG78             VOLUME    0.500000 1.000000 TIMESERIES 2YR_24HR_STORM  
RG79             VOLUME    0.500000 1.000000 TIMESERIES 2YR_24HR_STORM  
RG8              VOLUME    0.500000 1.000000 TIMESERIES 2YR_24HR_STORM  
RG80             VOLUME    0.500000 1.000000 TIMESERIES 2YR_24HR_STORM  
RG82             VOLUME    0.500000 1.000000 TIMESERIES 2YR_24HR_STORM  
RG83             VOLUME    0.500000 1.000000 TIMESERIES 2YR_24HR_STORM  
RG84             VOLUME    0.500000 1.000000 TIMESERIES 2YR_24HR_STORM  
RG85             VOLUME    0.500000 1.000000 TIMESERIES 2YR_24HR_STORM  
RG86             VOLUME    0.500000 1.000000 TIMESERIES 2YR_24HR_STORM  
RG87             VOLUME    0.500000 1.000000 TIMESERIES 2YR_24HR_STORM  
RG88             VOLUME    0.500000 1.000000 TIMESERIES 2YR_24HR_STORM  
RG89             VOLUME    0.500000 1.000000 TIMESERIES 2YR_24HR_STORM  
RG9              VOLUME    0.500000 1.000000 TIMESERIES 2YR_24HR_STORM  
RG90             VOLUME    0.500000 1.000000 TIMESERIES 2YR_24HR_STORM  
RG91             VOLUME    0.500000 1.000000 TIMESERIES 2YR_24HR_STORM  
RG92             VOLUME    0.500000 1.000000 TIMESERIES 2YR_24HR_STORM  
RG95             VOLUME    0.500000 1.000000 TIMESERIES 2YR_24HR_STORM  
RG96             VOLUME    0.500000 1.000000 TIMESERIES 2YR_24HR_STORM  
RG97             VOLUME    0.500000 1.000000 TIMESERIES 2YR_24HR_STORM  
RG98             VOLUME    0.500000 1.000000 TIMESERIES 2YR_24HR_STORM  
RG99             VOLUME    0.500000 1.000000 TIMESERIES 2YR_24HR_STORM  

[JUNCTIONS]
;;Name           Elevation  MaxDepth   InitDepth  SurDepth   Aponded   
;;-------------- ---------- ---------- ---------- ---------- ----------
; Lower Rowlett Creek Trunk Sewer
02651            480.000000 24.000000  0.000000   0.000000   50.000000 
; Lower Rowlett Creek Trunk Sewer
02655            494.110000 9.890000   0.000000   0.000000   50.000000 
; Cottonwood Creek Trunk Sewer
1001             615.530000 23.480000  0.000000   0.000000   50.000000 
; Cottonwood Creek Trunk Sewer
1003             611.520000 22.770000  0.000000   0.000000   50.000000 
; Cottonwood Creek Trunk Sewer
1005             611.270000 20.310000  0.000000   0.000000   50.000000 
; Cottonwood Creek Trunk Sewer
1007             610.890000 17.630000  0.000000   0.000000   50.000000 
; Cottonwood Creek Trunk Sewer
1009             601.170000 24.030000  0.000000   0.000000   50.000000 
; Cottonwood Creek Trunk Sewer
1011             600.460000 24.360000  0.000000   0.000000   50.000000 
; Cottonwood Creek Trunk Sewer
1013             599.550000 24.020000  0.000000   0.000000   50.000000 
; Cottonwood Creek Trunk Sewer
1015             598.940000 22.450000  0.000000   0.000000   50.000000 
; Cottonwood Creek Trunk Sewer
1017             598.830000 21.140000  0.000000   0.000000   50.000000 
; Cottonwood Creek Trunk Sewer
1019             598.320000 21.820000  0.000000   0.000000   50.000000 
; Cottonwood Creek Trunk Sewer
1021             598.090000 11.810000  0.000000   0.000000   50.000000 
; Cottonwood Creek Trunk Sewer
1023             597.750000 23.710000  0.000000   0.000000   50.000000 
; Cottonwood Creek Trunk Sewer
1025             597.410000 20.520000  0.000000   0.000000   50.000000 
; Cottonwood Creek Trunk Sewer
1027             596.800000 18.800000  0.000000   0.000000   50.000000 
; Cottonwood Creek Trunk Sewer
1029             596.050000 19.140000  0.000000   0.000000   50.000000 
; Cottonwood Creek Trunk Sewer
1031             595.440000 20.190000  0.000000   0.000000   50.000000 
; Cottonwood Creek Trunk Sewer
1033             593.480000 19.990000  0.000000   0.000000   50.000000 
; Cottonwood Creek Trunk Sewer
1035             593.090000 18.300000  0.000000   0.000000   50.000000 
; Cottonwood Creek Trunk Sewer
1037             592.760000 17.020000  0.000000   0.000000   50.000000 
; Cottonwood Creek Trunk Sewer
1039             592.280000 17.030000  0.000000   0.000000   50.000000 
; Cottonwood Creek Trunk Sewer
1041             591.990000 17.350000  0.000000   0.000000   50.000000 
; Cottonwood Creek Trunk Sewer
1043             591.880000 15.660000  0.000000   0.000000   50.000000 
; Cottonwood Creek Trunk Sewer
1045             591.240000 14.560000  0.000000   0.000000   50.000000 
; Cottonwood Creek Trunk Sewer
1047             590.990000 16.090000  0.000000   0.000000   50.000000 
; Cottonwood Creek Trunk Sewer
1049             590.880000 17.960000  0.000000   0.000000   50.000000 
; Cottonwood Creek Trunk Sewer
1051             590.620000 18.370000  0.000000   0.000000   50.000000 
; Cottonwood Creek Trunk Sewer
1053             590.350000 14.100000  0.000000   0.000000   50.000000 
; Cottonwood Creek Trunk Sewer
1055             589.990000 12.560000  0.000000   0.000000   50.000000 
; Cottonwood Creek Trunk Sewer
1057             589.600000 15.300000  0.000000   0.000000   50.000000 
; Cottonwood Creek Trunk Sewer
1059             589.250000 11.760000  0.000000   0.000000   50.000000 
; Cottonwood Creek Trunk Sewer
1061             589.110000 10.420000  0.000000   0.000000   50.000000 
; Cottonwood Creek Trunk Sewer
1063             588.950000 10.190000  0.000000   0.000000   50.000000 
; Cottonwood Creek Trunk Sewer
1065             588.680000 17.640000  0.000000   0.000000   50.000000 
; Cottonwood Creek Trunk Sewer
1067             588.530000 20.450000  0.000000   0.000000   50.000000 
; Cottonwood Creek Trunk Sewer
1069             588.450000 16.280000  0.000000   0.000000   50.000000 
; Cottonwood Creek Trunk Sewer
1073             587.010000 9.690000   0.000000   0.000000   50.000000 
; Cottonwood Creek Trunk Sewer
1075             585.880000 10.120000  0.000000   0.000000   50.000000 
; Cottonwood Creek Trunk Sewer
1077             584.040000 8.960000   0.000000   0.000000   50.000000 
; Cottonwood Creek Trunk Sewer
1079             581.750000 9.550000   0.000000   0.000000   50.000000 
; Cottonwood Creek Trunk Sewer
1081             579.330000 16.670000  0.000000   0.000000   50.000000 
; Field Inspection found that pipes at this MH are LPV
1083             577.510000 16.290000  0.000000   0.000000   50.000000 
; Cottonwood Creek Trunk Sewer
1085             575.540000 14.460000  0.000000   0.000000   50.000000 
; Cottonwood Creek Trunk Sewer
1087             573.640000 9.360000   0.000000   0.000000   50.000000 
; Cottonwood Creek Trunk Sewer
1089             572.460000 7.840000   0.000000   0.000000   50.000000 
; Cottonwood Creek Trunk Sewer
1091             571.770000 7.230000   0.000000   0.000000   50.000000 
; Cottonwood Creek Trunk Sewer
1093             571.430000 9.070000   0.000000   0.000000   50.000000 
; Cottonwood Creek Trunk Sewer
1095             570.210000 6.390000   0.000000   0.000000   50.000000 
1097_MH          570.160000 6.440000   0.000000   0.000000   50.000000 
; Cottonwood Creek Trunk Sewer
1099             570.140000 6.460000   0.000000   0.000000   50.000000 
; Cottonwood Creek Trunk Sewer
1101             567.840000 12.160000  0.000000   0.000000   50.000000 
; Upper Cottonwood LS connection
1103             572.500000 10.500000  1.000000   1000.000000 0.000000  
; Cottonwood Creek Outfall Sewer
1106             598.630000 6.650000   0.000000   0.000000   50.000000 
; Cottonwood Creek Outfall Sewer
1107             596.600000 9.870000   0.000000   0.000000   50.000000 
; Cottonwood Creek Outfall Sewer
1109             596.200000 21.080000  0.000000   0.000000   50.000000 
; Cottonwood Creek Outfall Sewer
1111             594.950000 9.950000   0.000000   0.000000   50.000000 
; Cottonwood Creek Outfall Sewer
1113             594.400000 9.670000   0.000000   0.000000   50.000000 
; Cottonwood Creek Outfall Sewer
1115             591.090000 12.400000  0.000000   0.000000   50.000000 
; Cottonwood Creek Outfall Sewer
1117             589.860000 10.080000  0.000000   0.000000   50.000000 
; Cottonwood Creek Outfall Sewer
1119             587.610000 9.750000   0.000000   0.000000   50.000000 
; Cottonwood Creek Outfall Sewer
1121             586.860000 9.260000   0.000000   0.000000   50.000000 
; Cottonwood Creek Outfall Sewer
1123             586.300000 12.920000  0.000000   0.000000   50.000000 
; Cottonwood Creek Outfall Sewer
1125             585.470000 13.630000  0.000000   0.000000   50.000000 
; Cottonwood Creek Outfall Sewer
1127             579.920000 12.340000  0.000000   0.000000   50.000000 
; Cottonwood Creek Outfall Sewer
1129             578.420000 11.050000  0.000000   0.000000   50.000000 
; Cottonwood Creek Outfall Sewer
1131             577.160000 13.100000  0.000000   0.000000   50.000000 
; Cottonwood Creek Outfall Sewer
1133             576.120000 11.370000  0.000000   0.000000   50.000000 
; Cottonwood Creek Outfall Sewer
1135             575.140000 11.080000  0.000000   0.000000   50.000000 
; Cottonwood Creek Outfall Sewer
1137             573.330000 9.150000   0.000000   0.000000   50.000000 
; Cottonwood Creek Outfall Sewer
1139             573.030000 12.300000  0.000000   0.000000   50.000000 
; Cottonwood Creek Outfall Sewer
1141             571.080000 8.920000   0.000000   0.000000   50.000000 
; Cottonwood Creek Outfall Sewer
1144             569.330000 10.920000  0.000000   0.000000   50.000000 
; Cottonwood Creek Outfall Sewer
1146             568.260000 10.790000  0.000000   0.000000   50.000000 
; Cottonwood Creek Outfall Sewer
1148             567.600000 10.460000  0.000000   0.000000   50.000000 
; Cottonwood Creek Outfall Sewer
1150             567.190000 10.330000  0.000000   0.000000   50.000000 
; Cottonwood Creek Outfall Sewer
1152             566.260000 12.920000  0.000000   0.000000   50.000000 
; Cottonwood Creek Outfall Sewer
1154             564.870000 14.000000  0.000000   0.000000   50.000000 
; Cottonwood Creek Outfall Sewer
1156             563.530000 8.080000   0.000000   0.000000   50.000000 
; Cottonwood Creek Outfall Sewer
1158             562.210000 7.700000   0.000000   0.000000   50.000000 
; Cottonwood Creek Outfall Sewer
1160             559.200000 9.750000   0.000000   0.000000   50.000000 
; Cottonwood Creek Outfall Sewer
1162             556.450000 9.550000   0.000000   0.000000   50.000000 
; Cottonwood Creek Outfall Sewer
1164             553.880000 9.750000   0.000000   0.000000   50.000000 
; Cottonwood Creek Outfall Sewer
1166             552.270000 9.550000   0.000000   0.000000   50.000000 
; Cottonwood Creek Outfall Sewer
1168             550.690000 10.000000  0.000000   0.000000   50.000000 
; Watters Branch
117              593.710000 17.090000  0.000000   0.000000   50.000000 
; Cottonwood Creek Outfall Sewer
1170             549.730000 10.900000  0.000000   0.000000   50.000000 
; Cottonwood Creek Outfall Sewer
1172             548.810000 10.700000  0.000000   0.000000   50.000000 
; Cottonwood Creek Outfall Sewer
1174             547.540000 9.800000   0.000000   0.000000   50.000000 
; Cottonwood Creek Outfall Sewer
1176             546.920000 9.900000   0.000000   0.000000   50.000000 
; Cottonwood Creek Outfall Sewer
1178             546.240000 10.900000  0.000000   0.000000   50.000000 
; Cottonwood Creek Outfall Sewer
1180             545.070000 11.000000  0.000000   0.000000   50.000000 
; Cottonwood Creek Outfall Sewer
1182             543.760000 10.800000  0.000000   0.000000   50.000000 
; Cottonwood Creek Outfall Sewer
1184             542.800000 9.700000   0.000000   0.000000   50.000000 
; Cottonwood Creek Outfall Sewer
1186             541.560000 8.700000   0.000000   0.000000   50.000000 
; Cottonwood Creek Outfall Sewer
1188             540.680000 12.000000  0.000000   0.000000   50.000000 
; Watters Branch
119              575.140000 21.860000  0.000000   0.000000   50.000000 
; Cottonwood Creek Outfall Sewer
1190             539.910000 11.500000  0.000000   0.000000   50.000000 
; Cottonwood Creek Outfall Sewer
1192             539.300000 11.000000  0.000000   0.000000   50.000000 
; Cottonwood Creek Outfall Sewer
1194             538.040000 7.650000   0.000000   0.000000   50.000000 
; Cottonwood Creek Outfall Sewer
1196             536.850000 7.500000   0.000000   0.000000   50.000000 
; Cottonwood Creek Outfall Sewer
1198             535.080000 11.600000  0.000000   0.000000   50.000000 
; Cottonwood Creek Outfall Sewer
1200             533.600000 9.600000   0.000000   0.000000   50.000000 
; Cottonwood Creek Outfall Sewer
1202             532.420000 9.550000   0.000000   0.000000   50.000000 
; Cottonwood Creek Outfall Sewer
1204             531.710000 11.600000  0.000000   0.000000   50.000000 
; Cottonwood Creek Outfall Sewer
1206             530.740000 16.600000  0.000000   0.000000   50.000000 
; Cottonwood Creek Outfall Sewer
1208             528.470000 8.450000   0.000000   0.000000   50.000000 
; Watters Branch
121              574.320000 18.680000  0.000000   0.000000   50.000000 
; Cottonwood Creek Outfall Sewer
1210             525.450000 9.000000   0.000000   0.000000   50.000000 
; Cottonwood Creek Outfall Sewer
1212             523.100000 9.220000   0.000000   0.000000   50.000000 
; Cottonwood Creek Outfall Sewer
1214             520.890000 9.250000   0.000000   0.000000   50.000000 
; Cottonwood Creek Outfall Sewer
1216             519.750000 9.050000   0.000000   0.000000   50.000000 
; Cottonwood Creek Outfall Sewer
1218             518.310000 8.500000   0.000000   0.000000   50.000000 
; Cottonwood Creek Outfall Sewer
1220             517.340000 10.740000  0.000000   0.000000   50.000000 
; Cottonwood Creek Outfall Sewer
1222             516.500000 9.170000   0.000000   0.000000   50.000000 
; Cottonwood Creek Outfall Sewer
1224             515.720000 9.320000   0.000000   0.000000   50.000000 
; Cottonwood Creek Outfall Sewer
1226             514.990000 9.120000   0.000000   0.000000   50.000000 
; Cottonwood Creek Outfall Sewer
1228             514.220000 5.740000   0.000000   0.000000   50.000000 
; Watters Branch
123              572.230000 15.270000  0.000000   0.000000   50.000000 
; Cottonwood Creek Outfall Sewer
1230             513.500000 4.880000   0.000000   0.000000   50.000000 
; Cottonwood Creek Outfall Sewer
1232             512.770000 10.600000  0.000000   0.000000   50.000000 
; Cottonwood Creek Outfall Sewer
1234             512.660000 9.750000   0.000000   0.000000   50.000000 
; Cottonwood Creek Outfall Sewer
1236             512.000000 9.440000   0.000000   0.000000   50.000000 
; Cottonwood Creek Trunk Sewer
1240             586.510000 9.490000   0.000000   0.000000   50.000000 
; Russell Creek Interceptor
1243             740.000000 10.000000  0.000000   0.000000   50.000000 
; Russell Creek Interceptor
1245             730.260000 8.990000   0.000000   0.000000   50.000000 
; Russell Creek Interceptor
1247             724.660000 10.340000  0.000000   0.000000   50.000000 
; Russell Creek Interceptor
1249             717.260000 8.990000   0.000000   0.000000   50.000000 
; Watters Branch
125              570.800000 15.200000  0.000000   0.000000   50.000000 
; Russell Creek Interceptor
1251             710.760000 9.240000   0.000000   0.000000   50.000000 
; Russell Creek Interceptor
1253             704.260000 9.740000   0.000000   0.000000   50.000000 
; Russell Creek Interceptor
1255             697.760000 10.240000  0.000000   0.000000   50.000000 
; Russell Creek Interceptor
1257             691.260000 11.740000  0.000000   0.000000   50.000000 
; Russell Creek Interceptor