[TITLE]
;;Project Title/Notes
Fixed 0.020, 1.0rrv; Fixed 0.0; New UK 8.0, 110rrv & Ground Infiltration

[OPTIONS]
;;Option             Value
FLOW_UNITS           CFS
INFILTRATION         HORTON
FLOW_ROUTING         DYNWAVE
LINK_OFFSETS         DEPTH
MIN_SLOPE            0
ALLOW_PONDING        YES
SKIP_STEADY_STATE    NO

START_DATE           12/12/2018
START_TIME           00:00:00
REPORT_START_DATE    12/12/2018
REPORT_START_TIME    00:00:00
END_DATE             12/13/2018
END_TIME             00:00:00
SWEEP_START          01/01
SWEEP_END            12/31
DRY_DAYS             0
REPORT_STEP          00:15:00
WET_STEP             00:05:00
DRY_STEP             01:00:00
ROUTING_STEP         0:00:30 

INERTIAL_DAMPING     PARTIAL
NORMAL_FLOW_LIMITED  BOTH
FORCE_MAIN_EQUATION  H-W
VARIABLE_STEP        0.75
LENGTHENING_STEP     0
MIN_SURFAREA         12.557
MAX_TRIALS           8
HEAD_TOLERANCE       0.005
SYS_FLOW_TOL         5
LAT_FLOW_TOL         5
MINIMUM_STEP         0.5
THREADS              1

[EVAPORATION]
;;Data Source    Parameters
;;-------------- ----------------
CONSTANT         0.0
DRY_ONLY         NO

[RAINGAGES]
;;Name           Format    Interval SCF      Source    
;;-------------- --------- ------ ------ ----------
1                INTENSITY 1:00     1.0      TIMESERIES MyRain          

[SUBCATCHMENTS]
;;Name           Rain Gage        Outlet           Area     %Imperv  Width    %Slope   CurbLen  SnowPack        
;;-------------- ---------------- ---------------- -------- -------- -------- -------- -------- ----------------
; Name Raingage Outlet Area %Imperv Width Slope Clength
S2234            1                2234             4.990491 40.000000 263.051401 8.474576 0.000000                 
S2251            1                2251             3.043468 40.000000 205.425020 15.748031 0.000000                 
S2252            1                2252             7.019384 40.000000 311.974070 3.225806 0.000000                 
S2253            1                2253             10.667776 40.000000 384.597040 0.000000 0.000000                 
S2254            1                2254             10.131568 40.000000 374.806696 0.000000 0.000000                 
S2255            1                2255             19.927031 40.000000 525.642285 0.000000 0.000000                 
S2256            1                2256             29.713405 40.000000 641.867237 4.310345 0.000000                 
S2257            1                2257             8.272013 40.000000 338.668339 1.677852 0.000000                 
S2258            1                2258             3.444118 40.000000 218.528466 5.208333 0.000000                 
S2260            1                2260             144.586214 40.000000 1415.899546 4.854369 0.000000                 
S2261            1                2261             44.500970 40.000000 785.513654 4.474273 0.000000                 
S2262            1                2262             50.261120 40.000000 834.805071 7.590133 0.000000                 
S2265            1                2265             10.651836 40.000000 384.309603 4.314995 0.000000                 
S2266            1                2266             24.203248 40.000000 579.303065 8.750000 0.000000                 
S2267            1                2267             418.089984 40.000000 2407.708362 12.121212 0.000000                 
S2268            1                2268             9.435999 40.000000 361.712012 0.000000 0.000000                 
S2269            1                2269             27.172809 40.000000 613.813266 0.000000 0.000000                 
S2270            1                2270             14.090667 40.000000 442.012731 4.166667 0.000000                 
S2271            1                2271             38.882177 40.000000 734.250557 1.381215 0.000000                 
S2273            1                2273             76.300328 40.000000 1028.566088 1.392758 0.000000                 
S3084            1                3084             47.754048 40.000000 813.718323 1.483680 0.000000                 
S3880            1                3880             169.510638 40.000000 1533.089391 11.527378 0.000000                 
S3881            1                3881             5.047702 40.000000 264.554935 0.000000 0.000000                 
S3882            1                3882             5.681072 40.000000 280.662340 0.000000 0.000000                 
S3883            1                3883             6.611083 40.000000 302.764749 2.624672 0.000000                 
S3884            1                3884             15.983186 40.000000 470.761216 2.949853 0.000000                 
S3886            1                3886             13.206893 40.000000 427.926650 1.295337 0.000000                 
S3887            1                3887             7.057056 40.000000 312.810114 7.194245 0.000000                 
S3888            1                3888             6.176354 40.000000 292.640943 1.552795 0.000000                 
S3889            1                3889             104.478610 40.000000 1203.601425 0.000000 0.000000                 
S3891            1                3891             378.168128 40.000000 2289.873341 0.000000 0.000000                 

[SUBAREAS]
;;Subcatchment   N-Imperv   N-Perv     S-Imperv   S-Perv     PctZero    RouteTo    PctRouted 
;;-------------- ---------- ---------- ---------- ---------- ---------- ---------- ----------
S2234            0.000000   0.000000   0.009602   2.704813   0.000000   OUTLET    
S2251            0.000000   0.000000   0.007044   1.984189   0.000000   OUTLET    
S2252            0.000000   0.000000   0.015563   4.384066   0.000000   OUTLET    
S2253            0.000000   0.000000   0.000000   0.000000   0.000000   OUTLET    
S2254            0.000000   0.000000   0.000000   0.000000   0.000000   OUTLET    
S2255            0.000000   0.000000   0.000000   0.000000   0.000000   OUTLET    
S2256            0.000000   0.000000   0.013464   3.792628   0.000000   OUTLET    
S2257            0.000000   0.000000   0.021580   6.078822   0.000000   OUTLET    
S2258            0.000000   0.000000   0.012248   3.450221   0.000000   OUTLET    
S2260            0.000000   0.000000   0.012687   3.573797   0.000000   OUTLET    
S2261            0.000000   0.000000   0.013215   3.722503   0.000000   OUTLET    
S2262            0.000000   0.000000   0.010146   2.858062   0.000000   OUTLET    
S2265            0.000000   0.000000   0.013457   3.790584   0.000000   OUTLET    
S2266            0.000000   0.000000   0.009450   2.661903   0.000000   OUTLET    
S2267            0.000000   0.000000   0.008029   2.261639   0.000000   OUTLET    
S2268            0.000000   0.000000   0.000000   0.000000   0.000000   OUTLET    
S2269            0.000000   0.000000   0.000000   0.000000   0.000000   OUTLET    
S2270            0.000000   0.000000   0.013694   3.857464   0.000000   OUTLET    
S2271            0.000000   0.000000   0.023784   6.699857   0.000000   OUTLET    
S2273            0.000000   0.000000   0.023686   6.672038   0.000000   OUTLET    
S3084            0.000000   0.000000   0.022949   6.464370   0.000000   OUTLET    
S3880            0.000000   0.000000   0.008233   2.319162   0.000000   OUTLET    
S3881            0.000000   0.000000   0.000000   0.000000   0.000000   OUTLET    
S3882            0.000000   0.000000   0.000000   0.000000   0.000000   OUTLET    
S3883            0.000000   0.000000   0.017254   4.860252   0.000000   OUTLET    
S3884            0.000000   0.000000   0.016275   4.584544   0.000000   OUTLET    
S3886            0.000000   0.000000   0.024560   6.918388   0.000000   OUTLET    
S3887            0.000000   0.000000   0.010422   2.935646   0.000000   OUTLET    
S3888            0.000000   0.000000   0.022432   6.318867   0.000000   OUTLET    
S3889            0.000000   0.000000   0.000000   0.000000   0.000000   OUTLET    
S3891            0.000000   0.000000   0.000000   0.000000   0.000000   OUTLET    

[INFILTRATION]
;;Subcatchment   MaxRate    MinRate    Decay      DryTime    MaxInfil  
;;-------------- ---------- ---------- ---------- ---------- ----------
S2234            0.000000   0.000000   0.000000   999.000000 0.000000  
S2251            0.000000   0.000000   0.000000   999.000000 0.000000  
S2252            0.000000   0.000000   0.000000   999.000000 0.000000  
S2253            0.000000   0.000000   0.000000   999.000000 0.000000  
S2254            0.000000   0.000000   0.000000   999.000000 0.000000  
S2255            0.000000   0.000000   0.000000   999.000000 0.000000  
S2256            0.000000   0.000000   0.000000   999.000000 0.000000  
S2257            0.000000   0.000000   0.000000   999.000000 0.000000  
S2258            0.000000   0.000000   0.000000   999.000000 0.000000  
S2260            0.000000   0.000000   0.000000   999.000000 0.000000  
S2261            0.000000   0.000000   0.000000   999.000000 0.000000  
S2262            0.000000   0.000000   0.000000   999.000000 0.000000  
S2265            0.000000   0.000000   0.000000   999.000000 0.000000  
S2266            0.000000   0.000000   0.000000   999.000000 0.000000  
S2267            0.000000   0.000000   0.000000   999.000000 0.000000  
S2268            0.000000   0.000000   0.000000   999.000000 0.000000  
S2269            0.000000   0.000000   0.000000   999.000000 0.000000  
S2270            0.000000   0.000000   0.000000   999.000000 0.000000  
S2271            0.000000   0.000000   0.000000   999.000000 0.000000  
S2273            0.000000   0.000000   0.000000   999.000000 0.000000  
S3084            0.000000   0.000000   0.000000   999.000000 0.000000  
S3880            0.000000   0.000000   0.000000   999.000000 0.000000  
S3881            0.000000   0.000000   0.000000   999.000000 0.000000  
S3882            0.000000   0.000000   0.000000   999.000000 0.000000  
S3883            0.000000   0.000000   0.000000   999.000000 0.000000  
S3884            0.000000   0.000000   0.000000   999.000000 0.000000  
S3886            0.000000   0.000000   0.000000   999.000000 0.000000  
S3887            0.000000   0.000000   0.000000   999.000000 0.000000  
S3888            0.000000   0.000000   0.000000   999.000000 0.000000  
S3889            0.000000   0.000000   0.000000   999.000000 0.000000  
S3891            0.000000   0.000000   0.000000   999.000000 0.000000  

[JUNCTIONS]
;;Name           Elevation  MaxDepth   InitDepth  SurDepth   Aponded   
;;-------------- ---------- ---------- ---------- ---------- ----------
; Name Elev ( Ymax Y0 Ysur Apond )
2233             10.000000  10.000000  0.000000   0.000000   0.000000  
2234             7.859000   27.141000  0.000000   0.000000   217385.769167
2238             1.147000   13.853000  0.000000   0.000000   0.000000  
22389            -0.241000  15.241000  0.000000   0.000000   0.000000  
2251             78.789000  21.211000  0.000000   0.000000   132573.447175
2252             56.376000  23.624000  0.000000   0.000000   305764.364810
2253             48.626000  21.374000  0.000000   0.000000   464688.309849
2254             43.196000  26.804000  0.000000   0.000000   441331.123691
2255             42.593000  27.407000  0.000000   0.000000   868021.460002
2256             35.933000  34.067000  0.000000   0.000000   1294315.910899
2257             35.005000  24.995000  0.000000   0.000000   360328.876255
2258             33.812990  21.187010  0.000000   0.000000   150025.784181
2260             2.037000   37.963000  0.000000   0.000000   6298175.496632
2261             3.021000   76.979000  0.000000   0.000000   1938462.259293
2262             6.500000   113.500000 0.000000   0.000000   2189374.372729
2265             7.741000   32.259000  0.000000   0.000000   463993.979191
2266             28.436990  21.563010  0.000000   0.000000   1054293.491708
2267             104.080000 35.920000  0.000000   0.000000   18211999.723260
2268             82.570000  17.430000  0.000000   0.000000   411032.095432
2269             85.000000  15.000000  0.000000   0.000000   1183647.578836
2270             8.099000   21.901000  0.000000   0.000000   613789.464574
2271             8.823000   16.177000  0.000000   0.000000   1693707.620802
2273             9.541000   10.459000  0.000000   0.000000   3323642.283779
3060             -5.075790  20.075790  0.000000   0.000000   0.000000  
3061             -5.561790  20.561790  0.000000   0.000000   0.000000  
3080             -2.292800  17.292800  0.000000   0.000000   0.000000  
3081             -2.070800  17.070800  0.000000   0.000000   0.000000  
3082             -1.848800  16.848800  0.000000   0.000000   0.000000  
3084             0.200000   19.800000  0.000000   0.000000   2080166.335496
3085             -2.756800  17.756800  0.000000   0.000000   0.000000  
3086             -3.094800  18.094800  0.000000   0.000000   0.000000  
3087             -3.503790  18.503790  0.000000   0.000000   0.000000  
3089             -4.718790  19.718790  0.000000   0.000000   0.000000  
3880             21.232800  43.767200  0.000000   0.000000   7383883.387937
3881             21.367800  43.632200  0.000000   0.000000   219877.914095
3882             21.593800  43.406200  0.000000   0.000000   247467.490938
3883             21.974790  53.025210  0.000000   0.000000   287978.781161
3884             22.313790  62.686210  0.000000   0.000000   696227.580969
3886             24.098800  65.901200  0.000000   0.000000   575292.273900
3887             22.786390  72.213610  0.000000   0.000000   307405.366519
3888             24.420790  70.579210  0.000000   0.000000   269041.978152
3889             24.442800  70.557200  0.000000   0.000000   4551088.271506
3891             24.810000  70.190000  0.000000   0.000000   16473003.657023
3892             -4.114790  19.114790  0.000000   0.000000   0.000000  
3894             -4.269790  19.269790  0.000000   0.000000   0.000000  
3896             -4.390790  19.390790  0.000000   0.000000   0.000000  
3897             -4.532790  19.532790  0.000000   0.000000   0.000000  

[OUTFALLS]
;;Name           Elevation  Type       Stage Data       Gated    Route To        
;;-------------- ---------- ---------- ---------------- -------- ----------------
; Name InvertEl FREE FlapGate
; Name InvertEl NORMAL FlapGate
; Name InvertEl FIXED FixedStage FlapGate
; Name InvertEl TIDAL TideTable FlapGate
; Name InvertEl TIMESERIES StageSeries FlapGate
Outfall          -5.784790  FREE                        NO                       

[CONDUITS]
;;Name           From Node        To Node          Length     Roughness  InOffset   OutOffset  InitFlow   MaxFlow   
;;-------------- ---------------- ---------------- ---------- ---------- ---------- ---------- ---------- ----------
; Name Node1 Node2 Length Nvalue Zup Zdown InitFlow
2233.1           2233             2273             153.000000 0.012987   0.000000   0.000000   0.000000   0         
2234.1           2234             2265             59.000000  0.012987   0.000000   0.000000   0.000000   0         
2238.1           2238             22389            1545.000000 0.012987   0.157000   0.000000   0.000000   0         
22389.1          22389            3082             1024.800000 0.012987   0.000300   0.583300   0.000000   0         
2251.1           2251             2252             127.000000 0.012987   0.000000   0.000000   0.000000   0         
2252.1           2252             2253             310.000000 0.012987   0.000000   0.000000   0.000000   0         
2253.1           2253             2254             181.000000 0.012987   0.000000   0.000000   0.000000   0         
2254.1           2254             2255             201.000000 0.012987   0.000000   0.000000   0.000000   0         
2255.1           2255             2256             148.000000 0.012987   0.000000   0.000000   0.000000   0         
2256.1           2256             2257             232.000000 0.012987   0.000000   0.000000   0.000000   0         
2257.1           2257             2258             298.000000 0.012987   0.000000   0.000000   0.000000   0         
2258.1           2258             2266             96.000000  0.012987   0.000000   0.000000   0.000000   0         
2260.1           2260             2238             515.000000 0.012987   0.000000   0.000000   0.000000   0         
2261.1           2261             2260             894.000000 0.012987   0.000000   0.000000   0.000000   0         
2262.1           2262             2261             527.000000 0.012987   0.000000   0.000000   0.000000   0         
2265.1           2265             2262             1854.000000 0.012987   0.000000   0.000000   0.000000   0         
2266.1           2266             2238             400.000000 0.012987   0.000010   0.490000   0.000000   0         
2267.1           2267             2268             330.000000 0.012987   0.000000   0.000000   0.000000   0         
2268.1           2268             2251             199.000000 0.012987   0.000000   0.000000   0.000000   0         
2269.1           2269             2268             21.000000  0.012987   0.000000   1.930000   0.000000   0         
2270.1           2270             2234             120.000000 0.012987   0.000000   0.000000   0.000000   0         
2271.1           2271             2270             362.000000 0.012987   0.000000   0.000000   0.000000   0         
2273.1           2273             2271             359.000000 0.012987   0.000000   0.000000   0.000000   0         
3060.1           3060             3061             486.000000 0.012987   0.000000   0.000000   0.000000   0         
3061.1           3061             Outfall          223.000000 0.012987   0.000000   0.000000   0.000000   0         
3080.1           3080             3085             464.000000 0.012987   0.000000   0.000000   0.000000   0         
3081.1           3081             3080             222.000000 0.012987   0.000000   0.000000   0.000000   0         
3082.1           3082             3081             222.000000 0.012987   0.000000   0.000000   0.000000   0         
3084.1           3084             22389            337.000000 0.012987   0.000000   0.333000   0.000000   0         
3085.1           3085             3086             338.000000 0.012987   0.000000   0.000000   0.000000   0         
3086.1           3086             3087             409.000000 0.012987   0.000000   0.000000   0.000000   0         
3087.1           3087             3892             611.000000 0.012987   0.000000   0.000000   0.000000   0         
3089.1           3089             3060             357.000000 0.012987   0.000000   0.000000   0.000000   0         
3880.1           3880             2271             347.000000 0.012987   0.000200   2.000000   0.000000   0         
3881.1           3881             3880             135.000000 0.012987   0.000000   0.000000   0.000000   0         
3882.1           3882             3881             226.000000 0.012987   0.000000   0.000000   0.000000   0         
3883.1           3883             3882             381.000000 0.012987   0.000000   0.000000   0.000000   0         
3884.1           3884             3883             339.000000 0.012987   0.000000   0.000000   0.000000   0         
3886.1           3886             3887             386.000000 0.012987   0.000000   0.000000   0.000000   0         
3887.1           3887             3884             139.000000 0.012987   0.000000   0.000000   0.000000   0         
3888.1           3888             3886             322.000000 0.012987   0.000000   0.000000   0.000000   0         
3889.1           3889             3888             22.000000  0.012987   0.000000   0.000000   0.000000   0         
3891.1           3891             3889             18.000000  0.012987   0.000000   0.000000   0.000000   0         
3892.1           3892             3894             155.000000 0.012987   0.000000   0.000000   0.000000   0         
3894.1           3894             3896             121.000000 0.012987   0.000000   0.000000   0.000000   0         
3896.1           3896             3897             142.000000 0.012987   0.000000   0.000000   0.000000   0         
3897.1           3897             3089             186.000000 0.012987   0.000000   0.000000   0.000000   0         

[XSECTIONS]
;;Link           Shape        Geom1            Geom2      Geom3      Geom4      Barrels    Culvert   
;;-------------- ------------ ---------------- ---------- ---------- ---------- ---------- ----------
2233.1           CIRCULAR     1.333333         0.000000   0.000000   0.000000   1                    
2234.1           CIRCULAR     2.500000         0.000000   0.000000   0.000000   1                    
2238.1           CIRCULAR     2.000000         0.000000   0.000000   0.000000   1                    
22389.1          CIRCULAR     2.000000         0.000000   0.000000   0.000000   1                    
2251.1           CIRCULAR     0.833333         0.000000   0.000000   0.000000   1                    
2252.1           CIRCULAR     1.000000         0.000000   0.000000   0.000000   1                    
2253.1           CIRCULAR     1.333333         0.000000   0.000000   0.000000   1                    
2254.1           CIRCULAR     1.333333         0.000000   0.000000   0.000000   1                    
2255.1           CIRCULAR     1.333333         0.000000   0.000000   0.000000   1                    
2256.1           CIRCULAR     1.333333         0.000000   0.000000   0.000000   1                    
2257.1           CIRCULAR     1.333333         0.000000   0.000000   0.000000   1                    
2258.1           CIRCULAR     1.333333         0.000000   0.000000   0.000000   1                    
2260.1           CIRCULAR     1.500000         0.000000   0.000000   0.000000   1                    
2261.1           CIRCULAR     1.500000         0.000000   0.000000   0.000000   1                    
2262.1           CIRCULAR     1.500000         0.000000   0.000000   0.000000   1                    
2265.1           CIRCULAR     1.500000         0.000000   0.000000   0.000000   1                    
2266.1           CIRCULAR     1.333333         0.000000   0.000000   0.000000   1                    
2267.1           CIRCULAR     0.666667         0.000000   0.000000   0.000000   1                    
2268.1           CIRCULAR     0.833333         0.000000   0.000000   0.000000   1                    
2269.1           CIRCULAR     0.666667         0.000000   0.000000   0.000000   1                    
2270.1           CIRCULAR     4.000000         0.000000   0.000000   0.000000   1                    
2271.1           CIRCULAR     4.000000         0.000000   0.000000   0.000000   1                    
2273.1           CIRCULAR     4.000000         0.000000   0.000000   0.000000   1                    
3060.1           CIRCULAR     2.250000         0.000000   0.000000   0.000000   1                    
3061.1           CIRCULAR     2.250000         0.000000   0.000000   0.000000   1                    
3080.1           CIRCULAR     2.250000         0.000000   0.000000   0.000000   1                    
3081.1           CIRCULAR     2.250000         0.000000   0.000000   0.000000   1                    
3082.1           CIRCULAR     2.250000         0.000000   0.000000   0.000000   1                    
3084.1           CIRCULAR     1.333333         0.000000   0.000000   0.000000   1                    
3085.1           CIRCULAR     2.250000         0.000000   0.000000   0.000000   1                    
3086.1           CIRCULAR     2.250000         0.000000   0.000000   0.000000   1                    
3087.1           CIRCULAR     2.250000         0.000000   0.000000   0.000000   1                    
3089.1           CIRCULAR     2.250000         0.000000   0.000000   0.000000   1                    
3880.1           CIRCULAR     2.000000         0.000000   0.000000   0.000000   1                    
3881.1           CIRCULAR     2.000000         0.000000   0.000000   0.000000   1                    
3882.1           CIRCULAR     2.000000         0.000000   0.000000   0.000000   1                    
3883.1           CIRCULAR     2.000000         0.000000   0.000000   0.000000   1                    
3884.1           CIRCULAR     2.000000         0.000000   0.000000   0.000000   1                    
3886.1           CIRCULAR     2.000000         0.000000   0.000000   0.000000   1                    
3887.1           CIRCULAR     2.000000         0.000000   0.000000   0.000000   1                    
3888.1           CIRCULAR     2.000000         0.000000   0.000000   0.000000   1                    
3889.1           CIRCULAR     2.000000         0.000000   0.000000   0.000000   1                    
3891.1           CIRCULAR     2.000000         0.000000   0.000000   0.000000   1                    
3892.1           CIRCULAR     2.250000         0.000000   0.000000   0.000000   1                    
3894.1           CIRCULAR     2.250000         0.000000   0.000000   0.000000   1                    
3896.1           CIRCULAR     2.250000         0.000000   0.000000   0.000000   1                    
3897.1           CIRCULAR     2.250000         0.000000   0.000000   0.000000   1                    

[LOSSES]
;;Link           Kentry     Kexit      Kavg       Flap Gate  Seepage   
;;-------------- ---------- ---------- ---------- ---------- ----------
2233.1           0.150000   0.015000   0.000000   NO         0         
2234.1           0.150000   0.015000   0.000000   NO         0         
2238.1           0.150000   0.015000   0.000000   NO         0         
22389.1          0.150000   0.015000   0.000000   NO         0         
2251.1           0.150000   0.015000   0.000000   NO         0         
2252.1           0.150000   0.015000   0.000000   NO         0         
2253.1           0.150000   0.015000   0.000000   NO         0         
2254.1           0.150000   0.015000   0.000000   NO         0         
2255.1           0.150000   0.015000   0.000000   NO         0         
2256.1           0.150000   0.015000   0.000000   NO         0         
2257.1           0.150000   0.015000   0.000000   NO         0         
2258.1           0.150000   0.015000   0.000000   NO         0         
2260.1           0.150000   0.015000   0.000000   NO         0         
2261.1           0.150000   0.015000   0.000000   NO         0         
2262.1           0.150000   0.015000   0.000000   NO         0         
2265.1           0.150000   0.015000   0.000000   NO         0         
2266.1           0.150000   0.015000   0.000000   NO         0         
2267.1           0.150000   0.015000   0.000000   NO         0         
2268.1           0.150000   0.015000   0.000000   NO         0         
2269.1           0.150000   0.015000   0.000000   NO         0         
2270.1           0.150000   0.015000   0.000000   NO         0         
2271.1           0.150000   0.015000   0.000000   NO         0         
2273.1           0.150000   0.015000   0.000000   NO         0         
3060.1           0.150000   0.015000   0.000000   NO         0         
3061.1           0.150000   0.015000   0.000000   NO         0         
3080.1           0.150000   0.015000   0.000000   NO         0         
3081.1           0.150000   0.015000   0.000000   NO         0         
3082.1           0.150000   0.015000   0.000000   NO         0         
3084.1           0.150000   0.015000   0.000000   NO         0         
3085.1           0.150000   0.015000   0.000000   NO         0         
3086.1           0.150000   0.015000   0.000000   NO         0         
3087.1           0.150000   0.015000   0.000000   NO         0         
3089.1           0.150000   0.015000   0.000000   NO         0         
3880.1           0.150000   0.015000   0.000000   NO         0         
3881.1           0.150000   0.015000   0.000000   NO         0         
3882.1           0.150000   0.015000   0.000000   NO         0         
3883.1           0.150000   0.015000   0.000000   NO         0         
3884.1           0.150000   0.015000   0.000000   NO         0         
3886.1           0.150000   0.015000   0.000000   NO         0         
3887.1           0.150000   0.015000   0.000000   NO         0         
3888.1           0.150000   0.015000   0.000000   NO         0         
3889.1           0.150000   0.015000   0.000000   NO         0         
3891.1           0.150000   0.015000   0.000000   NO         0         
3892.1           0.150000   0.015000   0.000000   NO         0         
3894.1           0.150000   0.015000   0.000000   NO         0         
3896.1           0.150000   0.015000   0.000000   NO         0         
3897.1           0.150000   0.015000   0.000000   NO         0         

[DWF]
;;Node           Constituent      Baseline   Patterns  
;;-------------- ---------------- ---------- ----------
2234             FLOW             47         "MONTHLY_POP_1" "HOURLY_POP_1" "WEEKEND_POP_1"
2251             FLOW             28         "MONTHLY_POP_1" "HOURLY_POP_1" "WEEKEND_POP_1"
2252             FLOW             66         "MONTHLY_POP_1" "HOURLY_POP_1" "WEEKEND_POP_1"
2253             FLOW             100        "MONTHLY_POP_1" "HOURLY_POP_1" "WEEKEND_POP_1"
2254             FLOW             95         "MONTHLY_POP_1" "HOURLY_POP_1" "WEEKEND_POP_1"
2255             FLOW             186        "MONTHLY_POP_1" "HOURLY_POP_1" "WEEKEND_POP_1"
2256             FLOW             278        "MONTHLY_POP_1" "HOURLY_POP_1" "WEEKEND_POP_1"
2257             FLOW             77         "MONTHLY_POP_1" "HOURLY_POP_1" "WEEKEND_POP_1"
2258             FLOW             32         "MONTHLY_POP_1" "HOURLY_POP_1" "WEEKEND_POP_1"
2260             FLOW             1351       "MONTHLY_POP_1" "HOURLY_POP_1" "WEEKEND_POP_1"