[TITLE]
;;Project Title/Notes

[OPTIONS]
;;Option             Value
FLOW_UNITS           CMS
INFILTRATION         HORTON
FLOW_ROUTING         DYNWAVE
LINK_OFFSETS         DEPTH
MIN_SLOPE            0
ALLOW_PONDING        YES
SKIP_STEADY_STATE    NO

START_DATE           10/13/2012
START_TIME           00:00:00
REPORT_START_DATE    10/13/2012
REPORT_START_TIME    00:00:00
END_DATE             10/13/2012
END_TIME             02:00:00
SWEEP_START          01/01
SWEEP_END            12/31
DRY_DAYS             0
REPORT_STEP          00:15:00
WET_STEP             00:05:00
DRY_STEP             01:00:00
ROUTING_STEP         0:00:30 

INERTIAL_DAMPING     PARTIAL
NORMAL_FLOW_LIMITED  BOTH
FORCE_MAIN_EQUATION  H-W
VARIABLE_STEP        0.75
LENGTHENING_STEP     10
MIN_SURFAREA         1.14
MAX_TRIALS           8
HEAD_TOLERANCE       0.0015
SYS_FLOW_TOL         5
LAT_FLOW_TOL         5
MINIMUM_STEP         0.5
THREADS              8

[EVAPORATION]
;;Data Source    Parameters
;;-------------- ----------------
CONSTANT         0.0
DRY_ONLY         NO

[RAINGAGES]
;;Name           Format    Interval SCF      Source    
;;-------------- --------- ------ ------ ----------
1                INTENSITY 1:00     1.0      TIMESERIES BalanceStorm    

[SUBCATCHMENTS]
;;Name           Rain Gage        Outlet           Area     %Imperv  Width    %Slope   CurbLen  SnowPack        
;;-------------- ---------------- ---------------- -------- -------- -------- -------- -------- ----------------
; Name Raingage Outlet Area %Imperv Width Slope Clength
S10001           1                10001            0.035971 0.000000 10.700450 0.000000 0.000000                 
S11690           1                11690            0.359100 0.000000 33.809031 1.577140 0.000000                 
S11691           1                11691            0.488180 0.000000 39.419873 0.793257 0.000000                 
S11692           1                11692            0.560764 0.000000 42.248877 1.018799 0.000000                 
S11693           1                11693            0.426916 0.000000 36.863474 0.281984 0.000000                 
S11697.1         1                11697            0.000000 0.000000 44.112169 0.000000 0.000000                 
S11705           1                11705            0.228752 0.000000 26.984097 0.986544 0.000000                 
S11706           1                11706            0.440855 0.000000 37.460448 0.978537 0.000000                 
S11707           1                11707            0.580305 0.000000 42.978686 1.150227 0.000000                 
S11708           1                11708            0.714725 0.000000 47.697379 4.557156 0.000000                 
S11709           1                11709            0.699026 0.000000 47.170626 2.807364 0.000000                 
S11710           1                11710            0.320867 0.000000 31.958591 0.748915 0.000000                 
S11729.1         1                11729            0.000000 0.000000 33.467911 0.000000 0.000000                 
S11729.2         1                11729            0.000000 0.000000 18.855417 0.000000 0.000000                 
S11730.1         1                11730            0.000000 0.000000 30.062536 0.000000 0.000000                 
S11731.1         1                11731            0.000000 0.000000 29.062865 0.000000 0.000000                 
S11731.2         1                11731            0.000000 0.000000 39.853773 0.000000 0.000000                 
S11732.1         1                11732            0.000000 0.000000 52.462202 1.003902 0.000000                 
S11733.1         1                11733            0.000000 0.000000 19.511817 0.000000 0.000000                 
S11733.2         1                11733            0.000000 0.000000 14.316986 0.000000 0.000000                 
S11734.1         1                11734            0.000000 0.000000 29.811652 0.000000 0.000000                 
S11735.1         1                11735            0.000000 0.000000 32.568186 0.000000 0.000000                 
S11735.2         1                11735            0.000000 0.000000 41.018064 0.000000 0.000000                 
S11736.1         1                11736            0.000000 0.000000 26.811672 3.579284 0.000000                 
S11736.2         1                11736            0.000000 0.000000 35.249018 3.579284 0.000000                 
S11737.1         1                11737            0.000000 0.000000 46.228046 0.956481 0.000000                 
S11738.1         1                11738            0.000000 0.000000 45.227415 0.000000 0.000000                 
S11761.1         1                11761            0.000000 0.000000 34.882394 0.000000 0.000000                 
S11761.2         1                11761            0.000000 0.000000 19.373016 0.000000 0.000000                 
S11761.3         1                11761            0.000000 0.000000 25.401980 0.000000 0.000000                 
S11764.1         1                11764            0.000000 0.000000 30.588922 0.000000 0.000000                 
S11764.2         1                11764            0.000000 0.000000 38.823695 0.000000 0.000000                 
S11765.1         1                11765            0.000000 0.000000 26.655878 4.049684 0.000000                 
S11765.2         1                11765            0.000000 0.000000 31.926432 4.049684 0.000000                 
S11766.1         1                11766            0.000000 0.000000 53.122970 0.000000 0.000000                 
S11767.1         1                11767            0.000000 0.000000 43.351056 0.000000 0.000000                 
S11768.1         1                11768            0.000000 0.000000 21.527372 0.000000 0.000000                 
S11768.2         1                11768            0.000000 0.000000 32.568746 0.000000 0.000000                 
S11769.1         1                11769            0.000000 0.000000 22.847155 0.000000 0.000000                 
S11769.2         1                11769            0.000000 0.000000 35.243959 0.000000 0.000000                 
S11771           1                11771            0.000000 0.000000 38.814757 0.861940 0.000000                 
S11771.1         1                11771            0.000000 0.000000 20.981129 0.861940 0.000000                 
S11772.1         1                11772            0.000000 0.000000 29.917498 0.991973 0.000000                 
S11772.2         1                11772            0.000000 0.000000 33.699048 0.991973 0.000000                 
S11773.1         1                11773            0.000000 0.000000 40.648252 3.131146 0.000000                 
S11777.1         1                11777            0.000000 0.000000 24.657345 6.250809 0.000000                 
S11778.1         1                11778            0.000000 0.000000 42.627998 3.278703 0.000000                 
S11779.1         1                11779            0.000000 0.000000 24.400595 0.000000 0.000000                 
S11779.2         1                11779            0.000000 0.000000 28.137351 0.000000 0.000000                 
S11780.1         1                11780            0.000000 0.000000 21.234469 0.000000 0.000000                 
S11781.1         1                11781            0.000000 0.000000 23.792468 0.000000 0.000000                 
S11781.2         1                11781            0.000000 0.000000 18.854076 0.000000 0.000000                 
S11782.1         1                11782            0.000000 0.000000 23.655875 0.000000 0.000000                 
S11782.2         1                11782            0.000000 0.000000 28.654366 0.000000 0.000000                 
S11783.1         1                11783            0.000000 0.000000 34.958180 0.000000 0.000000                 
S11783.2         1                11783            0.000000 0.000000 30.022671 0.000000 0.000000                 
S11784.1         1                11784            0.000000 0.000000 12.953994 0.000000 0.000000                 
S11784.2         1                11784            0.000000 0.000000 28.569523 0.000000 0.000000                 
S11785.1         1                11785            0.000000 0.000000 28.336633 1.410481 0.000000                 
S11785.2         1                11785            0.000000 0.000000 20.452627 1.410481 0.000000                 
S11787.1         1                11787            0.000000 0.000000 31.799741 0.000000 0.000000                 
S11787.2         1                11787            0.000000 0.000000 30.390715 0.000000 0.000000                 
S11788.1         1                11788            0.000000 0.000000 17.302724 0.000000 0.000000                 
S11789.1         1                11789            0.000000 0.000000 29.757780 5.164806 0.000000                 
S11789.2         1                11789            0.000000 0.000000 28.937986 5.164806 0.000000                 
S11791.1         1                11791            0.000000 0.000000 22.676894 0.000000 0.000000                 
S11791.2         1                11791            0.000000 0.000000 35.964300 0.000000 0.000000                 
S11792.1         1                11792            0.000000 0.000000 23.150615 0.000000 0.000000                 
S11792.2         1                11792            0.000000 0.000000 32.334565 0.000000 0.000000                 
S11793.1         1                11793            0.000000 0.000000 54.304004 1.127052 0.000000                 
S11794.1         1                11794            0.000000 0.000000 35.289828 0.944233 0.000000                 
S11794.2         1                11794            0.000000 0.000000 36.668656 0.944233 0.000000                 
S11794.3         1                11794            0.000000 0.000000 27.670447 0.944233 0.000000                 
S11794.4         1                11794            0.000000 0.000000 30.499387 0.944233 0.000000                 
S11795.1         1                11795            0.000000 0.000000 30.450544 0.000000 0.000000                 
S11795.2         1                11795            0.000000 0.000000 22.876208 0.000000 0.000000                 
S11796.1         1                11796            0.000000 0.000000 26.532441 0.000000 0.000000                 
S11796.2         1                11796            0.000000 0.000000 34.451323 0.000000 0.000000                 
S11797.1         1                11797            0.000000 0.000000 19.582115 0.000000 0.000000                 
S11798.1         1                11798            0.000000 0.000000 28.445455 5.121030 0.000000                 
S11798.2         1                11798            0.000000 0.000000 27.904219 5.121030 0.000000                 
S11799.1         1                11799            0.000000 0.000000 24.825501 3.250246 0.000000                 
S11799.2         1                11799            0.000000 0.000000 29.821176 3.250246 0.000000                 
S11799.3         1                11799            0.000000 0.000000 25.686812 3.250246 0.000000                 
S11803.1         1                11803            0.000000 0.000000 18.933569 0.000000 0.000000                 
S11803.2         1                11803            0.000000 0.000000 33.814966 0.000000 0.000000                 
S11804.1         1                11804            0.000000 0.000000 30.228755 0.000000 0.000000                 
S11805.1         1                11805            0.000000 0.000000 39.207990 3.229748 0.000000                 
S11805.2         1                11805            0.000000 0.000000 20.713313 3.229748 0.000000                 
S11806.1         1                11806            0.000000 0.000000 22.681513 0.000000 0.000000                 
S11808.1         1                11808            0.000000 0.000000 39.088287 1.628370 0.000000                 
S11810.1         1                11810            0.000000 0.000000 34.874369 0.000000 0.000000                 
S11810.2         1                11810            0.000000 0.000000 37.659129 0.000000 0.000000                 
S11811.1         1                11811            0.000000 0.000000 31.245149 1.002815 0.000000                 
S11811.2         1                11811            0.000000 0.000000 30.728009 1.002815 0.000000                 
S11811.3         1                11811            0.000000 0.000000 29.405611 1.002815 0.000000                 
S11811.4         1                11811            0.000000 0.000000 33.234687 1.002815 0.000000                 
S11812.1         1                11812            0.000000 0.000000 26.394987 0.000000 0.000000                 
S11813.1         1                11813            0.000000 0.000000 26.234519 0.000000 0.000000                 
S11814.1         1                11814            0.000000 0.000000 51.240002 2.819054 0.000000                 
S11815.1         1                11815            0.000000 0.000000 27.957569 0.000000 0.000000                 
S11815.2         1                11815            0.000000 0.000000 19.216722 0.000000 0.000000                 
S11816.1         1                11816            0.000000 0.000000 41.714060 0.851388 0.000000                 
S11817.1         1                11817            0.000000 0.000000 23.692629 0.000000 0.000000                 
S11817.2         1                11817            0.000000 0.000000 35.701174 0.000000 0.000000                 
S11818.1         1                11818            0.000000 0.000000 60.609346 3.590228 0.000000                 
S11819.1         1                11819            0.000000 0.000000 26.178698 0.000000 0.000000                 
S11819.2         1                11819            0.000000 0.000000 23.745398 0.000000 0.000000                 
S11820.1         1                11820            0.000000 0.000000 48.220150 3.839410 0.000000                 
S11820.2         1                11820            0.000000 0.000000 31.973906 3.839410 0.000000                 
S11821.1         1                11821            0.000000 0.000000 29.942899 0.000000 0.000000                 
S11822.1         1                11822            0.000000 0.000000 29.899694 2.397011 0.000000                 
S11822.2         1                11822            0.000000 0.000000 23.902155 2.397011 0.000000                 
S11826.1         1                11826            0.000000 0.000000 31.344917 0.000000 0.000000                 
S11826.2         1                11826            0.000000 0.000000 27.249093 0.000000 0.000000                 
S11827.1         1                11827            0.000000 0.000000 34.086964 1.770498 0.000000                 
S11828.1         1                11828            0.000000 0.000000 24.952161 0.000000 0.000000                 
S11828.2         1                11828            0.000000 0.000000 16.746662 0.000000 0.000000                 
S11829.1         1                11829            0.000000 0.000000 68.347045 0.110333 0.000000                 
S11830.1         1                11830            0.000000 0.000000 35.177144 0.000000 0.000000                 
S11830.2         1                11830            0.000000 0.000000 25.895823 0.000000 0.000000                 
S11831.1         1                11831            0.000000 0.000000 29.061419 0.000000 0.000000                 
S11831.2         1                11831            0.000000 0.000000 31.645656 0.000000 0.000000                 
S11832.1         1                11832            0.000000 0.000000 23.802797 0.000000 0.000000                 
S11832.2         1                11832            0.000000 0.000000 33.746939 0.000000 0.000000                 
S11833.1         1                11833            0.000000 0.000000 58.036902 2.470894 0.000000                 
S11834.1         1                11834            0.000000 0.000000 18.432029 0.000000 0.000000                 
S11834.2         1                11834            0.000000 0.000000 18.977832 0.000000 0.000000                 
S11835.1         1                11835            0.000000 0.000000 22.033308 0.000000 0.000000                 
S11835.2         1                11835            0.000000 0.000000 19.423875 0.000000 0.000000                 
S11836.1         1                11836            0.000000 0.000000 33.677399 0.000000 0.000000                 
S11836.2         1                11836            0.000000 0.000000 28.626194 0.000000 0.000000                 
S11838.1         1                11838            0.000000 0.000000 28.330773 2.044062 0.000000                 
S11839.1         1                11839            0.000000 0.000000 37.357711 29.157121 0.000000                 
S11841.1         1                11841            0.000000 0.000000 42.886423 0.000000 0.000000                 
S11842.1         1                11842            0.000000 0.000000 27.757749 5.403119 0.000000                 
S11842.2         1                11842            0.000000 0.000000 24.720751 5.403119 0.000000                 
S11843.1         1                11843            0.000000 0.000000 40.270974 0.000000 0.000000                 
S12118.1         1                12118            0.000000 0.000000 82.775097 12.849379 0.000000                 
S12118.2         1                12118            0.000000 0.000000 17.293902 12.849379 0.000000                 
S12120.1         1                12120            0.000000 0.000000 65.062050 1.455106 0.000000                 
S12122.1         1                12122            0.000000 0.000000 17.271265 0.000000 0.000000                 
S12123.1         1                12123            0.000000 0.000000 25.496646 0.000000 0.000000                 
S12124.1         1                12124            0.000000 0.000000 20.882261 0.000000 0.000000                 
S12125.1         1                12125            0.000000 0.000000 32.857501 0.000000 0.000000                 
S12125.2         1                12125            0.000000 0.000000 28.610250 0.000000 0.000000                 
S12127.1         1                12127            0.000000 0.000000 25.181212 0.000000 0.000000                 
S12128.1         1                12128            0.000000 0.000000 23.448439 0.000000 0.000000                 
S12129.1         1                12129            0.000000 0.000000 24.112219 2.641994 0.000000                 
S12129.2         1                12129            0.000000 0.000000 32.872425 2.641994 0.000000                 
S12130.1         1                12130            0.000000 0.000000 27.362200 0.000000 0.000000                 
S12130.2         1                12130            0.000000 0.000000 26.692374 0.000000 0.000000                 
S12131.1         1                12131            0.000000 0.000000 35.909001 0.000000 0.000000                 
S12131.2         1                12131            0.000000 0.000000 24.173859 0.000000 0.000000                 
S12131.3         1                12131            0.000000 0.000000 20.379208 0.000000 0.000000                 
S12132.1         1                12132            0.000000 0.000000 30.855918 0.000000 0.000000                 
S12132.2         1                12132            0.000000 0.000000 32.892088 0.000000 0.000000                 
S12134.1         1                12134            0.000000 0.000000 16.493085 1.165689 0.000000                 
S12134.2         1                12134            0.000000 0.000000 19.878006 1.165689 0.000000                 
S12136.1         1                12136            0.000000 0.000000 12.800682 0.000000 0.000000                 
S12136.2         1                12136            0.000000 0.000000 14.599719 0.000000 0.000000                 
S12137.1         1                12137            0.000000 0.000000 34.029960 0.000000 0.000000                 
S12137.2         1                12137            0.000000 0.000000 34.083150 0.000000 0.000000                 
S12139.1         1                12139            0.000000 0.000000 32.283361 0.777414 0.000000                 
S12139.2         1                12139            0.000000 0.000000 26.881101 0.777414 0.000000                 
S12140.1         1                12140            0.000000 0.000000 19.497768 0.000000 0.000000                 
S12140.2         1                12140            0.000000 0.000000 20.988258 0.000000 0.000000                 
S12141.1         1                12141            0.000000 0.000000 21.125263 0.000000 0.000000                 
S12141.2         1                12141            0.000000 0.000000 24.554589 0.000000 0.000000                 
S12142.1         1                12142            0.000000 0.000000 26.990934 1.629239 0.000000                 
S12142.2         1                12142            0.000000 0.000000 31.315681 1.629239 0.000000                 
S12145.1         1                12145            0.000000 0.000000 68.191806 1.367107 0.000000                 
S12151.1         1                12151            0.000000 0.000000 25.106729 0.505146 0.000000                 
S12152.1         1                12152            0.000000 0.000000 30.382078 0.000000 0.000000                 
S12152.2         1                12152            0.000000 0.000000 33.141093 0.000000 0.000000                 
S12153.1         1                12153            0.000000 0.000000 29.689717 1.701456 0.000000                 
S12153.2         1                12153            0.000000 0.000000 27.783474 1.701456 0.000000                 
S12154.1         1                12154            0.000000 0.000000 24.163943 0.000000 0.000000                 
S12154.2         1                12154            0.000000 0.000000 27.062953 0.000000 0.000000                 
S12155.1         1                12155            0.000000 0.000000 22.752824 0.000000 0.000000                 
S12155.2         1                12155            0.000000 0.000000 28.824711 0.000000 0.000000                 
S12156.1         1                12156            0.000000 0.000000 24.770893 1.870392 0.000000                 
S12156.2         1                12156            0.000000 0.000000 33.657594 1.870392 0.000000                 
S12156.3         1                12156            0.000000 0.000000 27.556921 1.870392 0.000000                 
S12157.1         1                12157            0.000000 0.000000 32.367126 0.000000 0.000000                 
S12157.2         1                12157            0.000000 0.000000 29.146515 0.000000 0.000000                 
S12158.1         1                12158            0.000000 0.000000 31.847758 0.000000 0.000000                 
S12158.2         1                12158            0.000000 0.000000 29.482108 0.000000 0.000000                 
S12159.1         1                12159            0.000000 0.000000 16.951064 0.000000 0.000000                 
S12159.2         1                12159            0.000000 0.000000 14.521629 0.000000 0.000000                 
S12161.1         1                12161            0.000000 0.000000 28.811462 0.000000 0.000000                 
S12161.2         1                12161            0.000000 0.000000 28.122450 0.000000 0.000000                 
S12162.1         1                12162            0.000000 0.000000 15.129549 0.000000 0.000000                 
S12164.1         1                12164            0.000000 0.000000 27.676340 0.000000 0.000000                 
S12164.2         1                12164            0.000000 0.000000 26.381306 0.000000 0.000000                 
S12166.1         1                12166            0.000000 0.000000 24.334494 0.000000 0.000000                 
S12166.2         1                12166            0.000000 0.000000 17.382887 0.000000 0.000000                 
S12168.1         1                12168            0.000000 0.000000 17.241872 0.000000 0.000000                 
S12168.2         1                12168            0.000000 0.000000 18.815204 0.000000 0.000000                 
S12169.1         1                12169            0.000000 0.000000 27.877603 0.000000 0.000000                 
S12169.2         1                12169            0.000000 0.000000 29.120304 0.000000 0.000000                 
S12170.1         1                12170            0.000000 0.000000 33.175049 0.000000 0.000000                 
S12170.2         1                12170            0.000000 0.000000 32.750797 0.000000 0.000000                 
S12171.1         1                12171            0.000000 0.000000 23.452480 5.185842 0.000000                 
S12173.1         1                12173            0.000000 0.000000 25.917276 0.000000 0.000000                 
S12173.2         1                12173            0.000000 0.000000 17.477222 0.000000 0.000000                 
S12174.1         1                12174            0.000000 0.000000 39.148798 1.692961 0.000000                 
S12175.1         1                12175            0.000000 0.000000 21.489470 0.000000 0.000000                 
S12175.2         1                12175            0.000000 0.000000 20.830683 0.000000 0.000000                 
S12176.1         1                12176            0.000000 0.000000 26.245506 0.000000 0.000000                 
S12176.2         1                12176            0.000000 0.000000 26.286228 0.000000 0.000000                 
S12177.1         1                12177            0.000000 0.000000 20.438017 0.000000 0.000000                 
S12177.2         1                12177            0.000000 0.000000 26.753854 0.000000 0.000000                 
S12178.1         1                12178            0.000000 0.000000 29.206001 1.339137 0.000000                 
S12178.2         1                12178            0.000000 0.000000 19.122712 1.339137 0.000000                 
S12178.3         1                12178            0.000000 0.000000 15.263951 1.339137 0.000000                 
S12191.1         1                12191            0.000000 0.000000 260.137464 0.938088 0.000000                 
S12198           1                12198            0.425616 0.000000 36.807308 0.000000 0.000000                 
S12199           1                12199            0.797646 0.000000 50.388350 0.000000 0.000000                 
S12200           1                12200            0.453262 0.000000 37.983932 0.000000 0.000000                 
S12201           1                12201            0.361328 0.000000 33.913747 0.000000 0.000000                 
S12202           1                12202            0.576227 0.000000 42.827410 0.000000 0.000000                 
S12203           1                12203            0.587776 0.000000 43.254471 0.000000 0.000000                 
S12204           1                12204            0.425708 0.000000 36.811305 0.000000 0.000000                 
S12205           1                12205            0.750586 0.000000 48.879338 0.000000 0.000000                 
S12206           1                12206            0.444457 0.000000 37.613155 0.000000 0.000000                 
S12207           1                12207            0.558191 0.000000 42.151818 0.000000 0.000000                 
S12208           1                12208            0.881587 0.000000 52.973390 0.000000 0.000000                 
S12209           1                12209            0.578029 0.000000 42.894334 0.000000 0.000000                 
S12210           1                12210            0.562120 0.000000 42.299935 0.000000 0.000000                 
S12211           1                12211            0.741673 0.000000 48.588258 0.000000 0.000000                 
S12212           1                12212            0.599995 0.000000 43.701752 0.000000 0.000000                 
S12215           1                12215            0.432706 0.000000 37.112630 0.000000 0.000000                 
S12216           1                12216            0.625055 0.000000 44.605048 0.000000 0.000000                 
S12217           1                12217            0.469816 0.000000 38.671319 0.000000 0.000000                 
S12218           1                12218            1.020486 0.000000 56.993936 0.000000 0.000000                 
S12219           1                12219            0.900737 0.000000 53.545646 0.000000 0.000000                 
S12220           1                12220            1.065790 0.000000 58.245291 0.000000 0.000000                 
S12221           1                12221            0.515889 0.000000 40.523167 0.000000 0.000000                 
S12222           1                12222            0.599629 0.000000 43.688433 0.000000 0.000000                 
S12223           1                12223            0.949600 0.000000 54.978814 0.000000 0.000000                 
S12224           1                12224            0.556300 0.000000 42.080390 0.000000 0.000000                 
S12226           1                12226            0.624259 0.000000 44.576666 0.000000 0.000000                 
S12227           1                12227            0.495724 0.000000 39.723277 0.000000 0.000000                 
S12228           1                12228            0.413699 0.000000 36.288338 0.000000 0.000000                 
S12229           1                12229            0.644115 0.000000 45.280037 0.000000 0.000000                 
S12230           1                12230            0.927597 0.000000 54.338143 0.000000 0.000000                 
S12231           1                12231            0.997676 0.000000 56.353357 0.000000 0.000000                 
S12232           1                12232            1.000728 0.000000 56.439501 0.000000 0.000000                 