[TITLE]
;;Project Title/Notes
  University Storm Drainage Evaluation
  Project No: VOF02-11
  October 2003

[OPTIONS]
;;Option             Value
FLOW_UNITS           CFS
INFILTRATION         HORTON
FLOW_ROUTING         DYNWAVE
LINK_OFFSETS         DEPTH
MIN_SLOPE            0
ALLOW_PONDING        NO
SKIP_STEADY_STATE    NO

START_DATE           09/23/2003
START_TIME           00:00:00
REPORT_START_DATE    09/23/2003
REPORT_START_TIME    00:00:00
END_DATE             09/24/2003
END_TIME             00:00:00
SWEEP_START          1/1
SWEEP_END            12/31
DRY_DAYS             0
REPORT_STEP          00:01:00
WET_STEP             00:00:20
DRY_STEP             00:01:00
ROUTING_STEP         0:00:10 

INERTIAL_DAMPING     PARTIAL
NORMAL_FLOW_LIMITED  SLOPE
FORCE_MAIN_EQUATION  H-W
VARIABLE_STEP        0.75
LENGTHENING_STEP     0
MIN_SURFAREA         0
MAX_TRIALS           0
HEAD_TOLERANCE       0
SYS_FLOW_TOL         5
LAT_FLOW_TOL         5
MINIMUM_STEP         0.5
THREADS              1

[EVAPORATION]
;;Data Source    Parameters
;;-------------- ----------------
CONSTANT         0.0
DRY_ONLY         NO

[RAINGAGES]
;;Name           Format    Interval SCF      Source    
;;-------------- --------- ------ ------ ----------
University       CUMULATIVE .25      1.0      TIMESERIES Chautauqua-10yr 

[SUBCATCHMENTS]
;;Name           Rain Gage        Outlet           Area     %Imperv  Width    %Slope   CurbLen  SnowPack        
;;-------------- ---------------- ---------------- -------- -------- -------- -------- -------- ----------------
;Area A1
A1               University       J3               2.83     29.9     174      1.14     0                        
;Area A2
A2               University       J4               3.96     6.4      209      1.07     0                        
;Area A3
A3               University       J7               1.1      73.9     157      1.72     0                        
;Area A4
A4               University       J9               1.38     64.7     143      2.41     0                        
;Area A5
A5               University       J13              1.41     16.3     153      2.08     0                        
;Area A6
A6               University       J14              9.87     7.5      354      1.01     0                        
;Area A7
A7               University       J15              1.36     77.7     197      1.72     0                        
;Area A8
A8               University       J12              .98      23.1     104      1.88     0                        
;Area A9
A9               University       J17              2.44     49.5     183      1.0      0                        
;Area A10
A10              University       J22              1.01     58.5     176      0.7      0                        
;Area A11
A11              University       J21              1.98     49       215      0.7      0                        
;Area A12
A12              University       J20              2.55     10.3     216      1.3      0                        
;Area A13
A13              University       J5               2.96     38.1     184      1.62     0                        
;Area A14
A14              University       J30              5.16     7.7      232      0.7      0                        
;Area 15
A15              University       J27              .17      4        79       5.5      0                        
;Area 16
A16              University       J29              .96      0        205      0.5      0                        
;Area 17
A17              University       J35              1.44     0        185      1.35     0                        
;Area A18
A18              University       J31              1.43     78.3     174      0.4      0                        
;Area A19
A19              University       J33              1.44     57.4     165      1.55     0                        
;Area A20
A20              University       J36              4.67     0        299      1.0      0                        
;Area A21
A21              University       J32              1.7      29.9     114      1.23     0                        
;Area A22
A22              University       J37              1.62     0        221      0.8      0                        
;Area A23
A23              University       J38              2.28     56.2     129      0.6      0                        
;Area A24
A24              University       J39              1.22     0        138      2.8      0                        
;Area A25
A25              University       J42              16.46    3.7      520      1.16     0                        
;Area A26
A26              University       J41              16.98    4.5      508      1.98     0                        
;Area A27
A27              University       J43              5.24     30.9     293      3.8      0                        
;Area A28
A28              University       J45              .12      89.7     48       2.38     0                        
;Area A29
A29              University       J46              1.76     70.5     226      2.39     0                        
;Area A30
A30              University       J48              1.12     60.1     180      1.65     0                        
;Area A31
A31              University       J51              .20      13.4     55       2.16     0                        
;Area A32
A32              University       J49              .75      73.4     92       1.8      0                        
;Area A33
A33              University       J56              4.69     45.1     296      0.8      0                        
;Area A34
A34              University       J52              1.84     67.1     210      0.8      0                        
;Area A35
A35              University       J57              2.43     27.2     225      1.55     0                        
;Area A36
A36              University       J53              10.27    25       588      2.6      0                        
;Area A37
A37              University       J55              1.73     30.2     215      3.95     0                        
;Area A38
A38              University       J58              1.92     47.1     182      2.06     0                        
;Area A39
A39              University       J61              1.52     37.7     175      2.0      0                        
;Area A40
A40              University       J69              .91      95.1     153      1.0      0                        
;Area A41
A41              University       J60              1.30     75.1     162      0.7      0                        
;Area A42
A42              University       J64              1.15     40.9     135      1.32     0                        
;Area A43
A43              University       J62              1.1      70.9     174      1.77     0                        
;Area A44
A44              University       J65              6.40     28.8     365      1.34     0                        
;Area A45
A45              University       J68              .12      78.6     57       0.5      0                        
;Area A46
A46              University       J47              2.87     54.6     167      1.61     0                        

[SUBAREAS]
;;Subcatchment   N-Imperv   N-Perv     S-Imperv   S-Perv     PctZero    RouteTo    PctRouted 
;;-------------- ---------- ---------- ---------- ---------- ---------- ---------- ----------
A1               0.011      .24        0.028      0.15       20         OUTLET    
A2               0.011      0.24       0.029      0.15       5          OUTLET    
A3               0.011      0.24       0.023      0.2        16         IMPERVIOUS 100       
A4               0.011      0.24       0.02       0.18       17         IMPERVIOUS 100       
A5               0.011      0.24       0.021      0.13       25         PERVIOUS   100       
A6               0.011      0.24       0.03       0.3        21         OUTLET    
A7               0.011      0.24       0.023      0.2        6          IMPERVIOUS 100       
A8               0.011      0.24       0.022      0.15       12         IMPERVIOUS 100       
A9               0.011      0.24       0.03       0.15       5          OUTLET    
A10              0.011      0.24       0.036      0.25       30         PERVIOUS   100       
A11              0.011      0.24       0.036      0.25       30         PERVIOUS   100       
A12              0.011      0.24       0.027      0.15       30         PERVIOUS   100       
A13              0.011      0.24       0.024      .13        20         IMPERVIOUS 100       
A14              0.011      0.2        0.036      0.25       23         PERVIOUS   100       
A15              0.011      0.24       0.013      0.1        30         PERVIOUS   100       
A16              0.011      0.24       0.043      0.15       30         PERVIOUS   100       
A17              0.011      0.2        0.026      0.15       30         PERVIOUS   100       
A18              0.011      0.24       0.047      0.25       10         IMPERVIOUS 100       
A19              0.011      0.24       0.024      0.2        17         IMPERVIOUS 100       
A20              0.011      0.24       0.03       0.15       30         PERVIOUS   100       
A21              0.011      0.24       0.027      0.15       25         PERVIOUS   100       
A22              0.011      0.24       0.034      0.25       30         PERVIOUS   100       
A23              0.011      0.24       0.039      0.3        25         IMPERVIOUS 100       
A24              0.011      0.24       0.018      0.1        30         PERVIOUS   100       
A25              0.011      0.24       0.028      0.15       30         PERVIOUS   100       
A26              0.011      0.24       0.022      0.15       30         PERVIOUS   100       
A27              0.011      0.24       0.016      0.1        11         OUTLET    
A28              0.011      0.24       0.02       .12        5          IMPERVIOUS 100       
A29              0.011      0.24       0.02       0.12       14         OUTLET    
A30              0.011      0.24       0.024      0.15       5          OUTLET    
A31              0.011      0.24       0.021      0.12       20         PERVIOUS   100       
A32              0.011      0.24       0.023      0.15       6          IMPERVIOUS 100       
A33              0.011      0.24       0.034      0.25       20         OUTLET    
A34              0.011      0.24       0.034      0.25       13         OUTLET    
A35              0.011      0.24       0.024      0.18       20         PERVIOUS   100       
A36              0.011      0.24       0.019      0.13       10         OUTLET    
A37              0.011      0.24       0.015      0.1        20         PERVIOUS   100       
A38              0.011      0.24       0.021      .13        17         OUTLET    
A39              0.011      0.24       0.022      0.13       20         PERVIOUS   100       
A40              0.011      0.24       0.03       0.15       10         IMPERVIOUS 100       
A41              0.011      0.24       0.036      0.3        10         OUTLET    
A42              0.011      0.24       0.026      0.15       10         IMPERVIOUS 100       
A43              0.011      0.24       0.023      0.15       5          IMPERVIOUS 100       
A44              0.011      0.24       0.026      0.2        15         IMPERVIOUS 100       
A45              0.011      0.24       0.043      0.25       10         IMPERVIOUS 100       
A46              0.011      0.24       0.024      0.15       12         IMPERVIOUS 100       

[INFILTRATION]
;;Subcatchment   MaxRate    MinRate    Decay      DryTime    MaxInfil  
;;-------------- ---------- ---------- ---------- ---------- ----------
A1               6.0        0.225      0.00115    0          0         
A2               6.0        0.225      .00115     0          0         
A3               6.0        0.225      0.00115    0          0         
A4               6.0        0.225      .00115     0          0         
A5               6.0        0.375      .00115     0          0         
A6               6.0        0.300      0.00115    0          0         
A7               6.0        0.375      0.00115    0          0         
A8               6.0        0.375      0.00115    0          0         
A9               6.0        0.375      0.00115    0          0         
A10              6.0        0.375      0.00115    0          0         
A11              6.0        0.375      0.00115    0          0         
A12              6.0        0.375      0.00115    0          0         
A13              6.0        0.225      0.00115    0          0         
A14              6.0        0.225      0.00115    0          0         
A15              6.0        0.225      0.00115    0          0         
A16              6.0        0.225      0.00115    0          0         
A17              6.0        0.225      0.00115    0          0         
A18              6.0        0.163      0.00115    0          0         
A19              6.0        0.1        0.00115    0          0         
A20              6.0        0.1        0.00115    0          0         
A21              6.0        0.100      0.00115    0          0         
A22              6.0        0.100      0.00115    0          0         
A23              6.0        0.10       0.00115    0          0         
A24              6.0        0.100      0.00115    0          0         
A25              6.0        0.163      0.00115    0          0         
A26              6.0        0.225      0.00115    0          0         
A27              6.0        0.225      0.00115    0          0         
A28              6.0        0.225      0.00115    0          0         
A29              6.0        0.225      0.00115    0          0         
A30              6.0        0.225      0.00115    0          0         
A31              6.0        0.225      0.00115    0          0         
A32              6.0        0.225      0.00115    0          0         
A33              6.0        0.225      0.00115    0          0         
A34              6.0        0.300      0.00115    0          0         
A35              6.0        0.300      0.00115    0          0         
A36              6.0        0.163      0.00115    0          0         
A37              6.0        0.225      0.00115    0          0         
A38              6.0        0.225      0.00115    0          0         
A39              6.0        0.225      0.00115    0          0         
A40              6.0        0.225      0.00115    0          0         
A41              6.0        0.225      0.00115    0          0         
A42              6.0        0.225      0.00115    0          0         
A43              6.0        0.225      0.00115    0          0         
A44              6.0        0.225      0.00115    0          0         
A45              6.0        0.225      0.00115    0          0         
A46              6.0        0.225      0.00115    0          0         

[JUNCTIONS]
;;Name           Elevation  MaxDepth   InitDepth  SurDepth   Aponded   
;;-------------- ---------- ---------- ---------- ---------- ----------
;MH
J1               647.23     15.17      0          0          0         
;MH
J2               650.17     13.8       0          0          0         
;CB
J3               651.71     9.2        0          0          0         
;CB
J4               654.4      7.83       0          0          0         
;CB
J5               653.90     3.98       0          0          0         
;MH
J6               659.26     6.91       0          0          0         
;CB
J7               660.25     4.5        0          0          0         
;MH
J8               660.94     6.98       0          0          0         
;CB
J9               662.90     4.5        0          0          0         
;MH
J10              662.25     6.97       0          0          0         
;Tee
J11              664.15     2          0          0          0         
;MH
J12              664.32     7.85       0          0          0         
;CB
J13              665.97     4.36       0          0          0         
;MH
J14              647.36     12.7       0          0          0         
;CB
J15              668.4      2.45       0          0          0         
;MH
J16              665.52     9.8        0          0          0         
;MH
J17              666.54     9.27       0          0          0         
;Tee
J18              668.89     2.01       0          0          0         
;MH
J19              670.11     9.99       0          0          0         
;CB
J20              670.91     4.4        0          0          0         
;CB
J21              672        7.16       0          0          0         
;CB
J22              673.05     7.07       0          0          0         
;MH
J23              648.3      9.51       0          0          0         
;MH
J24              648.49     16.7       0          0          0         
;Tee
J25              649.92     5.01       0          0          0         
;Tee
J26              650.46     5.01       0          0          0         
;CB
J27              661.24     6.95       0          0          0         
;MH
J28              650.2      9.4        0          0          0         
;CB
J29              650.31     7.98       0          0          0         
;CB
J30              651        2.7        0          0          0         
;CB
J31              650.42     6.65       0          0          0         
;CB
J32              651.51     5.87       0          0          0         
;CB
J33              650.62     6.44       0          0          0         
;CB
J34              650.81     6.24       0          0          0         
;CB
J35              651.02     3.49       0          0          0         
;CB
J36              651.75     4.6        0          0          0         
;CB
J37              652.19     4.23       0          0          0         
;CB
J38              653.11     4.5        0          0          0         
;CB
J39              653.84     3.1        0          0          0         
;MH
J40              653.9      4.4        0          0          0         
;Inlet
J41              657.14     2          0          0          0         
;Inlet
J42              654.47     2.5        0          0          0         
;MH
J43              652.59     19.0       0          0          0         
;TEE
J44              655.56     4.6        0          0          0         
;CB
J45              670.32     4.51       0          0          0         
;CB
J46              669.2      6.83       0          0          0         
;CB
J47              663.46     4.95       0          0          0         
;MH
J48              676.25     9.75       0          0          0         
;CB
J49              672.12     8.65       0          0          0         
;TEE
J50              674.06     2.01       0          0          0         
;TEE
J51              679.91     1.02       0          0          0         
;MH
J52              674.48     9.4        0          0          0         
;MH
J53              659.98     13.2       0          0          0         
;MH
J54              661.66     15.3       0          0          0         
;CB
J55              668.4      4.89       0          0          0         
;CB
J56              672.87     6.9        0          0          0         
;CB
J57              673.58     9.05       0          0          0         
;CB
J58              662.05     15.45      0          0          0         
;MH
J59              665.17     15.9       0          0          0         
;MH
J69              672.93     13.9       0          0          0         
;MH
J60              676.18     6.97       0          0          0         
;CB
J61              671.15     8.3        0          0          0         
;TEE
J62              672.53     3.01       0          0          0         
;MH
J63              672.91     8.5        0          0          0         
;MH
J64              675.76     7          0          0          0         
;CB
J65              674.39     6.43       0          0          0         
;TEE
J66              681.5      3.01       0          0          0         
;CB
J68              682.62     6.1        0          0          0         
;MH
J70              684.64     4.7        0          0          0         

[OUTFALLS]
;;Name           Elevation  Type       Stage Data       Gated    Route To        
;;-------------- ---------- ---------- ---------------- -------- ----------------
;66" Pipe leaving universtiy
Out              647.62     NORMAL                      NO                       

[CONDUITS]
;;Name           From Node        To Node          Length     Roughness  InOffset   OutOffset  InitFlow   MaxFlow   
;;-------------- ---------------- ---------------- ---------- ---------- ---------- ---------- ---------- ----------
C1               J1               Out              50         0.024      0.5        0          0          0         
C2               J2               J1               340        0.024      0.5        0.5        0          0         
C3               J3               J2               165        0.013      0.5        1.76       0          0         
C4               J4               J3               68         0.013      .5         1.9        0          0         
;CB
C5               J5               J3               287        0.013      .5         0.75       0          0         
;24" RCP
C6               J6               J2               250        0.013      .5         .71        0          0         
;15" RCP
C7               J7               J6               90         0.013      .5         1.4        0          0         
;30" RCP
C8               J8               J6               252        0.013      .5         .68        0          0         
;12" RCP
C9               J9               J8               102        0.013      .5         1.58       0          0         
;24" RCP
C10              J10              J8               106        0.013      .5         .66        0          0         
;24" RCP
C11              J11              J10              135        0.013      0          .62        0          0         
;24" RCP
C12              J12              J11              110        0.013      .5         0          0          0         
;15"
C13              J13              J12              130        0.013      .5         .76        0          0         
;71x47 cmp
C14              J14              J1               210        0.024      .5         .5         0          0         
;10" PVC
C15              J15              J11              105        0.013      .5         .7         0          0         
;18" RCP
C16              J16              J12              100        0.013      .5         .86        0          0         
;15" RCP
C17              J17              J16              165        0.013      .5         .58        0          0         
;24" RCP
C18              J18              J12              260        0.013      0          1.86       0          0         
;24" RCP
C19              J19              J18              120        0.013      .5         0          0          0         
;15" RCP
C20              J20              J19              90         0.013      .5         .71        0          0         
;18" RCP
C21              J21              J19              120        0.013      .5         .89        0          0         
;12" RCP
C22              J22              J18              75         0.013      .5         .1         0          0         
;71x47 cmp
C23              J23              J14              410        0.024      0          .7         0          0         
;71x47 cmp
C24              J24              J23              415        0.024      .5         0          0          0         
;71x47 cmp
C25              J25              J24              110        0.024      0          .5         0          0         
C26              J26              J25              200        0.01       0          0          0          0         
;12" RCP
C27              J27              J26              30         0.013      .5         1          0          0         
;71x47
C28              J28              J26              50         0.013      .5         0          0          0         
;71x47
C29              J29              J28              70         0.024      .55        .55        0          0         
;12" RCP
C30              J30              J25              30         0.013      .5         1          0          0         
;71x47
C31              J31              J29              70         0.024      .5         .5         0          0         
;36" RCP
C32              J32              J31              440        0.013      .23        .5         0          0         
;48" RCP
C33              J33              J31              125        0.013      .5         .5         0          0         
;48" RCP
C34              J34              J33              115        0.013      .5         .5         0          0         
;12" RCP
C35              J35              J34              60         0.013      .5         .55        0          0         
;48" RCP
C36              J36              J34              275        0.013      .5         .5         0          0         
;42" RCP
C37              J37              J36              130        0.013      .5         .5         0          0         
;24" RCP
C38              J38              J32              630        0.013      .5         .25        0          0         
;36" RCP
C39              J39              J37              340        0.013      .5         .5         0          0         
;21" RCP
C40              J40              J39              155        0.013      .5         .5         0          0         
;18" RCP
C41              J41              J40              150        0.013      0          .85        0          0         
;24" RCP
C42              J42              J37              255        0.013      0          .5         0          0         
;54" RCP
C43              J43              J2               1116       0.013      .5         .5         0          0         
;54" RCP
C44              J44              J43              375        0.013      0          .5         0          0         
;12" RCP
C45              J45              J43              100        0.013      .5         6.1        0          0         
;18" RCP
C46              J46              J43              150        0.013      .5         6.1        0          0         
;12" RCP
C47              J47              J43              160        0.013      .5         7.3        0          0         
;15" RCP
C48              J48              J46              270        0.013      .5         2.8        0          0         
;30" RCP
C49              J49              J44              255        0.013      .5         1          0          0         
;24" RCP
C50              J50              J49              200        0.013      0          1.1        0          0         
;12" RCP
C51              J51              J50              110        0.013      0          .5         0          0         
;24" RCP
C52              J52              J50              265        0.013      .5         0          0          0         
;54" RCP
C53              J53              J44              745        0.013      .5         0          0          0         
;48" RCP
C54              J54              J53              190        0.013      .5         .7         0          0         
;30" RCP
C55              J55              J54              145        0.013      .5         6          0          0         
;24" RCP
C56              J56              J55              420        0.013      .5         .64        0          0         
;24" RCP
C57              J57              J56              370        0.013      0.5        0.6        0          0         
;42" RCP
C58              J58              J54              20         0.013      .5         .51        0          0         
;42" RCP
C59              J59              J58              430        0.013      .5         0.5        0          0         
;12" RCP
C60              J69              J59              150        0.013      .5         6          0          0         
;15" RCP
C61              J60              J59              255        0.013      .5         2.49       0          0         
;36" RCP
C62              J61              J59              25         0.013      .5         .6         0          0         
;36" RCP
C63              J62              J61              105        0.013      0          .81        0          0         
;36" RCP
C64              J63              J62              70         0.013      0          0          0          0         
;12" RCP
C65              J64              J63              95         0.013      .5         2.6        0          0         
;36" RCP
C66              J65              J63              50         0.013      .5         .1         0          0         
;36" RCP
C67              J66              J65              445        0.013      0          1.01       0          0         
;8" Tile
C69              J68              J66              210        0.013      .5         .5         0          0         
;36" RCP
C70              J70              J66              165        0.013      .5         0          0          0         

[XSECTIONS]
;;Link           Shape        Geom1            Geom2      Geom3      Geom4      Barrels    Culvert   
;;-------------- ------------ ---------------- ---------- ---------- ---------- ---------- ----------
C1               CIRCULAR     5.5              0          0          0          1                    