[TITLE]
;;Project Title/Notes

[OPTIONS]
;;Option             Value
FLOW_UNITS           CFS
INFILTRATION         CURVE_NUMBER
FLOW_ROUTING         DYNWAVE
LINK_OFFSETS         DEPTH
MIN_SLOPE            0
ALLOW_PONDING        YES
SKIP_STEADY_STATE    NO

IGNORE_SNOWMELT      YES
IGNORE_GROUNDWATER   YES
IGNORE_QUALITY       YES
START_DATE           01/01/2002
START_TIME           00:00:00
REPORT_START_DATE    01/01/2002
REPORT_START_TIME    00:00:00
END_DATE             01/02/2002
END_TIME             00:00:00
SWEEP_START          01/01
SWEEP_END            12/31
DRY_DAYS             5.000000
REPORT_STEP          00:05:00
WET_STEP             00:01:00
DRY_STEP             01:00:00
ROUTING_STEP         0:00:30 

INERTIAL_DAMPING     NONE
NORMAL_FLOW_LIMITED  SLOPE
FORCE_MAIN_EQUATION  H-W
VARIABLE_STEP        1.00
LENGTHENING_STEP     0
MIN_SURFAREA         0
MAX_TRIALS           0
HEAD_TOLERANCE       0
SYS_FLOW_TOL         5
LAT_FLOW_TOL         5
MINIMUM_STEP         0.5
THREADS              1

[EVAPORATION]
;;Data Source    Parameters
;;-------------- ----------------
CONSTANT         0.0
DRY_ONLY         NO

[RAINGAGES]
;;Name           Format    Interval SCF      Source    
;;-------------- --------- ------ ------ ----------
100-YR-24-HOUR   CUMULATIVE 0.100000 1.000000 TIMESERIES TIMESERIES1     

[SUBCATCHMENTS]
;;Name           Rain Gage        Outlet           Area     %Imperv  Width    %Slope   CurbLen  SnowPack        
;;-------------- ---------------- ---------------- -------- -------- -------- -------- -------- ----------------
CAT_1205         100-YR-24-HOUR   6524             5.738042 25.000000 500.000000 10.000000 0.000000                 
CAT_1216         100-YR-24-HOUR   6524             4.000271 25.000000 500.000000 10.000000 0.000000                 
CAT_1231         100-YR-24-HOUR   6520             0.630498 25.000000 500.000000 10.000000 0.000000                 
CAT_1252         100-YR-24-HOUR   6518             17.435239 25.000000 500.000000 10.000000 0.000000                 
CAT_1275         100-YR-24-HOUR   6515             6.314034 25.000000 500.000000 10.000000 0.000000                 
CAT_1294         100-YR-24-HOUR   6507             7.610486 25.000000 500.000000 10.000000 0.000000                 
CAT_1314         100-YR-24-HOUR   6503             4.567786 25.000000 500.000000 10.000000 0.000000                 
CAT_1328         100-YR-24-HOUR   6501             2.456389 25.000000 500.000000 10.000000 0.000000                 
CAT_1369         100-YR-24-HOUR   6868             12.074067 25.000000 500.000000 10.000000 0.000000                 

[SUBAREAS]
;;Subcatchment   N-Imperv   N-Perv     S-Imperv   S-Perv     PctZero    RouteTo    PctRouted 
;;-------------- ---------- ---------- ---------- ---------- ---------- ---------- ----------
CAT_1205         0.100000   0.001000   0.050000   0.050000   25.000000  OUTLET    
CAT_1216         0.100000   0.001000   0.050000   0.050000   25.000000  OUTLET    
CAT_1231         0.100000   0.001000   0.050000   0.050000   25.000000  OUTLET    
CAT_1252         0.100000   0.001000   0.050000   0.050000   25.000000  OUTLET    
CAT_1275         0.100000   0.001000   0.050000   0.050000   25.000000  OUTLET    
CAT_1294         0.100000   0.001000   0.050000   0.050000   25.000000  OUTLET    
CAT_1314         0.100000   0.001000   0.050000   0.050000   25.000000  OUTLET    
CAT_1328         0.100000   0.001000   0.050000   0.050000   25.000000  OUTLET    
CAT_1369         0.100000   0.001000   0.050000   0.050000   25.000000  OUTLET    

[INFILTRATION]
;;Subcatchment   CurveNum              DryTime   
;;-------------- ---------- ---------- ----------
CAT_1205         92.734000  0.500000   0.001000  
CAT_1216         91.721000  0.500000   0.001000  
CAT_1231         86.110000  0.500000   0.001000  
CAT_1252         89.423000  0.500000   0.001000  
CAT_1275         90.373000  0.500000   0.001000  
CAT_1294         88.704000  0.500000   0.001000  
CAT_1314         89.071000  0.500000   0.001000  
CAT_1328         89.398000  0.500000   0.001000  
CAT_1369         87.332000  0.500000   0.001000  

[JUNCTIONS]
;;Name           Elevation  MaxDepth   InitDepth  SurDepth   Aponded   
;;-------------- ---------- ---------- ---------- ---------- ----------
4577             0.000000   879.800000 0.000000   0.000000   0.000000  
4743             878.590000 20.000000  0.000000   0.000000   0.000000  
4743-2           893.560000 606.440000 0.000000   0.000000   0.000000  
6501             881.377000 8.850000   0.000000   0.000000   0.000000  
6502             882.792000 14.800000  0.000000   0.000000   0.000000  
6503             883.931000 8.250000   0.000000   0.000000   0.000000  
6504             885.358000 11.150000  0.000000   0.000000   0.000000  
6507             887.766000 8.300000   0.000000   0.000000   0.000000  
6515             881.294000 8.006000   0.000000   0.000000   0.000000  
6516             881.476000 25.200000  0.000000   0.000000   0.000000  
6517             881.450000 7.300000   0.000000   0.000000   0.000000  
6518             882.340000 12.900000  0.000000   0.000000   0.000000  
6519             882.121000 8.979000   0.000000   0.000000   0.000000  
6520             881.194000 12.900000  0.000000   0.000000   0.000000  
6521             880.981000 25.600000  0.000000   0.000000   0.000000  
6522             880.952000 10.500000  0.000000   0.000000   0.000000  
6523             883.406000 12.900000  0.000000   0.000000   0.000000  
6868             879.870000 8.650000   0.000000   0.000000   0.000000  

[OUTFALLS]
;;Name           Elevation  Type       Stage Data       Gated    Route To        
;;-------------- ---------- ---------- ---------------- -------- ----------------
2888_FES         0.000000   FREE                        NO                       
4537             879.800000 FREE                        NO                       
4538             872.620000 FREE                        NO                       

[STORAGE]
;;Name           Elev.    MaxDepth   InitDepth  Shape      Curve Name/Params            N/A      Fevap    Psi      Ksat     IMD     
;;-------------- -------- ---------- ----------- ---------- ---------------------------- -------- --------          -------- --------
6524             883.754000 15.250000  0.000000   TABULAR    6524                         147150.000000 0.000000

[CONDUITS]
;;Name           From Node        To Node          Length     Roughness  InOffset   OutOffset  InitFlow   MaxFlow   
;;-------------- ---------------- ---------------- ---------- ---------- ---------- ---------- ---------- ----------
2888_1           6515             6516             44.838475  0.010000   0.206000   0.024000   0.000000   0.000000  
2888_2           6516             6517             84.669964  0.010000   0.024000   0.000000   0.000000   0.000000  
2888_3           6517             2888_FES         139.738846 0.010000   0.000000   881.000000 0.000000   0.000000  
LS4_18IN_FM      4743-2           6521             38.039015  0.012000   0.000000   11.649000  0.000000   0.000000  
P_3059           6522             4538             117.689886 0.010000   -0.002000  0.000000   0.000000   0.000000  
P_3062           6520             4743             14.763477  0.010000   0.806000   1.690000   0.000000   0.000000  
P_4239           6868             4577             81.938714  0.024000   0.000000   879.870000 0.000000   0.000000  
P_4243           4577             4537             220.764211 0.024000   879.800000 0.000000   0.000000   0.000000  
P_7280           6520             6521             44.024873  0.010000   -0.004000  -0.001000  0.000000   0.000000  
P_7281           6523             6518             261.724610 0.010000   0.004000   0.250000   0.000000   0.000000  
P_7282           6519             6520             113.197787 0.010000   -0.001000  0.096000   0.000000   0.000000  
P_7283           6524             6523             41.036020  0.010000   -0.004000  0.004000   0.000000   0.000000  
P_7364           6504             6503             144.608582 0.024000   0.002000   -0.001000  0.000000   0.000000  
P_7365           6507             6504             284.744392 0.024000   0.004000   0.052000   0.000000   0.000000  
P_7366           6503             6502             88.356864  0.024000   -0.001000  -0.062000  0.000000   0.000000  
P_7367           6502             6501             188.095705 0.024000   -0.002000  0.003000   0.000000   0.000000  
P_7368           6501             6868             105.109660 0.024000   0.003000   0.450000   0.000000   0.000000  
P_7396           6521             6522             54.203267  0.010000   -0.001000  -0.002000  0.000000   0.000000  
P_7397           6518             6519             55.071126  0.010000   0.000000   -0.001000  0.000000   0.000000  

[PUMPS]
;;Name           From Node        To Node          Pump Curve       Status   Sartup Shutoff 
;;-------------- ---------------- ---------------- ---------------- ------ -------- --------
PUMP-4           4743             4743-2           PUMP-4           ON       6.410000 3.710000

[XSECTIONS]
;;Link           Shape        Geom1            Geom2      Geom3      Geom4      Barrels    Culvert   
;;-------------- ------------ ---------------- ---------- ---------- ---------- ---------- ----------
2888_1           CIRCULAR     1.750000         0.000000   0.000000   0.000000   1          0         
2888_2           CIRCULAR     1.750000         0.000000   0.000000   0.000000   1          0         
2888_3           CIRCULAR     1.750000         0.000000   0.000000   0.000000   1          0         
LS4_18IN_FM      FORCE_MAIN   1.500000         130.000000 0.000000   0.000000   1          0         
P_3059           CIRCULAR     3.000000         0.000000   0.000000   0.000000   1          0         
P_3062           CIRCULAR     3.000000         0.000000   0.000000   0.000000   1          0         
P_4239           CIRCULAR     2.500000         0.000000   0.000000   0.000000   1          0         
P_4243           CIRCULAR     2.500000         0.000000   0.000000   0.000000   1          0         
P_7280           CIRCULAR     3.000000         0.000000   0.000000   0.000000   1          0         
P_7281           CIRCULAR     2.500000         0.000000   0.000000   0.000000   1          0         
P_7282           CIRCULAR     3.000000         0.000000   0.000000   0.000000   1          0         
P_7283           CIRCULAR     2.500000         0.000000   0.000000   0.000000   1          0         
P_7364           CIRCULAR     2.000000         0.000000   0.000000   0.000000   1          0         
P_7365           CIRCULAR     2.000000         0.000000   0.000000   0.000000   1          0         
P_7366           CIRCULAR     2.500000         0.000000   0.000000   0.000000   1          0         
P_7367           CIRCULAR     2.500000         0.000000   0.000000   0.000000   1          0         
P_7368           CIRCULAR     2.500000         0.000000   0.000000   0.000000   1          0         
P_7396           CIRCULAR     3.000000         0.000000   0.000000   0.000000   1          0         
P_7397           CIRCULAR     2.000000         0.000000   0.000000   0.000000   1          0         

[LOSSES]
;;Link           Kentry     Kexit      Kavg       Flap Gate  Seepage   
;;-------------- ---------- ---------- ---------- ---------- ----------
2888_1           0.000000   0.000000   0.000000   NO         0         
2888_2           0.000000   0.000000   0.000000   NO         0         
2888_3           0.000000   0.000000   0.000000   NO         0         
LS4_18IN_FM      0.000000   0.000000   0.000000   NO         0         
P_3059           0.000000   0.000000   0.000000   NO         0         
P_3062           0.000000   0.000000   0.000000   NO         0         
P_4239           0.000000   0.000000   0.000000   NO         0         
P_4243           0.000000   0.000000   0.000000   NO         0         
P_7280           0.000000   0.000000   0.000000   NO         0         
P_7281           0.000000   0.000000   0.000000   NO         0         
P_7282           0.000000   0.000000   0.000000   NO         0         
P_7283           0.000000   0.000000   0.000000   NO         0         
P_7364           0.000000   0.000000   0.000000   NO         0         
P_7365           0.000000   0.000000   0.000000   NO         0         
P_7366           0.000000   0.000000   0.000000   NO         0         
P_7367           0.000000   0.000000   0.000000   NO         0         
P_7368           0.000000   0.000000   0.000000   NO         0         
P_7396           0.000000   0.000000   0.000000   NO         0         
P_7397           0.000000   0.000000   0.000000   NO         0         

[CONTROLS]


[CURVES]
;;Name           Type       X-Value    Y-Value   
;;-------------- ---------- ---------- ----------
1436A            PUMP3      0.000000   12.600000 
1436A                       7.600000   12.600000 
1436A                       7.700000   50.000000 
1436A                       7.900000   600.000000
;
PUMP-4           PUMP3      21.200000  17.000000 
PUMP-4                      24.200000  16.100000 
PUMP-4                      25.800000  15.600000 
PUMP-4                      27.500000  15.000000 
PUMP-4                      28.700000  14.430000 
PUMP-4                      30.600000  13.000000 
PUMP-4                      34.700000  9.980000  
PUMP-4                      37.400000  6.660000  
PUMP-4                      72.000000  0.000000  
;
1439             STORAGE    0.000000   12.566000 
1439                        4.200000   12.566000 
1439                        4.210000   23.611000 
1439                        4.460000   500.000000
1439                        4.710000   2850.000000
1439                        4.960000   7850.000000
1439                        5.210000   20000.000000
1439                        5.710000   66450.000000
;
6524             STORAGE    0.000000   12.566000 
6524                        12.990000  12.566000 
6524                        13.000000  23.611000 
6524                        13.250000  500.000000
6524                        13.500000  2850.000000
6524                        13.750000  7850.000000
6524                        14.000000  20000.000000
6524                        14.250000  40000.000000
6524                        14.500000  66450.000000
6524                        14.750000  96450.000000
6524                        15.000000  122850.000000
6524                        15.250000  147150.000000

[TIMESERIES]
;;Name           Date       Time       Value     
;;-------------- ---------- ---------- ----------
TIMESERIES1                 0:00       0.000000  
TIMESERIES1                 0:06       0.005260  
TIMESERIES1                 0:12       0.010520  
TIMESERIES1                 0:18       0.015780  
TIMESERIES1                 0:24       0.021566  
TIMESERIES1                 0:30       0.026826  
TIMESERIES1                 0:36       0.032612  
TIMESERIES1                 0:42       0.037872  
TIMESERIES1                 0:48       0.043658  
TIMESERIES1                 0:54       0.049444  
TIMESERIES1                 1:00       0.055230  
TIMESERIES1                 1:06       0.061016  
TIMESERIES1                 1:12       0.066802  
TIMESERIES1                 1:18       0.072588  
TIMESERIES1                 1:24       0.078900  
TIMESERIES1                 1:30       0.084686  
TIMESERIES1                 1:36       0.090998  
TIMESERIES1                 1:42       0.096784  
TIMESERIES1                 1:48       0.103096  
TIMESERIES1                 1:54       0.109408  
TIMESERIES1                 2:00       0.115720  
TIMESERIES1                 2:06       0.122032  
TIMESERIES1                 2:12       0.128344  
TIMESERIES1                 2:18       0.135182  
TIMESERIES1                 2:24       0.141494  
TIMESERIES1                 2:30       0.147806  
TIMESERIES1                 2:36       0.154644  
TIMESERIES1                 2:42       0.160956  
TIMESERIES1                 2:48       0.167794  
TIMESERIES1                 2:54       0.174632  
TIMESERIES1                 3:00       0.181470  
TIMESERIES1                 3:06       0.188308  
TIMESERIES1                 3:12       0.195146  
TIMESERIES1                 3:18       0.201984  
TIMESERIES1                 3:24       0.209348  
TIMESERIES1                 3:30       0.216186  
TIMESERIES1                 3:36       0.223550  
TIMESERIES1                 3:42       0.230914  
TIMESERIES1                 3:48       0.237752  
TIMESERIES1                 3:54       0.245116  
TIMESERIES1                 4:00       0.252480  
TIMESERIES1                 4:06       0.259844  
TIMESERIES1                 4:12       0.267208  
TIMESERIES1                 4:18       0.275098  
TIMESERIES1                 4:24       0.282988  
TIMESERIES1                 4:30       0.290878  
TIMESERIES1                 4:36       0.298768  
TIMESERIES1                 4:42       0.306658  
TIMESERIES1                 4:48       0.314548  
TIMESERIES1                 4:54       0.322964  
TIMESERIES1                 5:00       0.331380  
TIMESERIES1                 5:06       0.339796  
TIMESERIES1                 5:12       0.348212  
TIMESERIES1                 5:18       0.357154  
TIMESERIES1                 5:24       0.366096  
TIMESERIES1                 5:30       0.374512  
TIMESERIES1                 5:36       0.383980  
TIMESERIES1                 5:42       0.392922  
TIMESERIES1                 5:48       0.401864  
TIMESERIES1                 5:54       0.411332  
TIMESERIES1                 6:00       0.420800  
TIMESERIES1                 6:06       0.430268  
TIMESERIES1                 6:12       0.439736  
TIMESERIES1                 6:18       0.449730  
TIMESERIES1                 6:24       0.459724  
TIMESERIES1                 6:30       0.469192  
TIMESERIES1                 6:36       0.479712  
TIMESERIES1                 6:42       0.489706  
TIMESERIES1                 6:48       0.499700  
TIMESERIES1                 6:54       0.510220  
TIMESERIES1                 7:00       0.520740  
TIMESERIES1                 7:06       0.531260  
TIMESERIES1                 7:12       0.541780  
TIMESERIES1                 7:18       0.552826  
TIMESERIES1                 7:24       0.563872  
TIMESERIES1                 7:30       0.574918  
TIMESERIES1                 7:36       0.585964  
TIMESERIES1                 7:42       0.597010  
TIMESERIES1                 7:48       0.608056  
TIMESERIES1                 7:54       0.619628  
TIMESERIES1                 8:00       0.631200  
TIMESERIES1                 8:06       0.642772  
TIMESERIES1                 8:12       0.655396  
TIMESERIES1                 8:18       0.668020  
TIMESERIES1                 8:24       0.681696  
TIMESERIES1                 8:30       0.695372  
TIMESERIES1                 8:36       0.710100  
TIMESERIES1                 8:42       0.725354  
TIMESERIES1                 8:48       0.740608  
TIMESERIES1                 8:54       0.756388  
TIMESERIES1                 9:00       0.773220  
TIMESERIES1                 9:06       0.790052  
TIMESERIES1                 9:12       0.806884  
TIMESERIES1                 9:18       0.823716  
TIMESERIES1                 9:24       0.840548  
TIMESERIES1                 9:30       0.857380  
TIMESERIES1                 9:36       0.874738  
TIMESERIES1                 9:42       0.892622  
TIMESERIES1                 9:48       0.911558  
TIMESERIES1                 9:54       0.931546  
TIMESERIES1                 10:00      0.952060  
TIMESERIES1                 10:06      0.973626  
TIMESERIES1                 10:12      0.996770  
TIMESERIES1                 10:18      1.020966  
TIMESERIES1                 10:24      1.046214  
TIMESERIES1                 10:30      1.073040  
TIMESERIES1                 10:36      1.101444  
TIMESERIES1                 10:42      1.131952  
TIMESERIES1                 10:48      1.164564  
TIMESERIES1                 10:54      1.199280  
TIMESERIES1                 11:00      1.236100  
TIMESERIES1                 11:06      1.276602  
TIMESERIES1                 11:12      1.321838  
TIMESERIES1                 11:18      1.372334  
TIMESERIES1                 11:24      1.428090  
TIMESERIES1                 11:30      1.488580  
TIMESERIES1                 11:36      1.613768  
TIMESERIES1                 11:42      1.864144  
TIMESERIES1                 11:48      2.266008  
TIMESERIES1                 11:54      2.987154  
TIMESERIES1                 12:00      3.487380  
TIMESERIES1                 12:06      3.587320  
TIMESERIES1                 12:12      3.674636  
TIMESERIES1                 12:18      3.750380  
TIMESERIES1                 12:24      3.814552  
TIMESERIES1                 12:30      3.866100  
TIMESERIES1                 12:36      3.910284  
TIMESERIES1                 12:42      3.952364  
TIMESERIES1                 12:48      3.991288  
TIMESERIES1                 12:54      4.027056  
TIMESERIES1                 13:00      4.060720  
TIMESERIES1                 13:06      4.092280  
TIMESERIES1                 13:12      4.121736  
TIMESERIES1                 13:18      4.150140  
TIMESERIES1                 13:24      4.177492  
TIMESERIES1                 13:30      4.202740  
TIMESERIES1                 13:36      4.226936  
TIMESERIES1                 13:42      4.250080  
TIMESERIES1                 13:48      4.272172  
TIMESERIES1                 13:54      4.293212  
TIMESERIES1                 14:00      4.313200  
TIMESERIES1                 14:06      4.332662  
TIMESERIES1                 14:12      4.351598  
TIMESERIES1                 14:18      4.370008  
TIMESERIES1                 14:24      4.387892  
TIMESERIES1                 14:30      4.405776  
TIMESERIES1                 14:36      4.423134  
TIMESERIES1                 14:42      4.440492  
TIMESERIES1                 14:48      4.457324  
TIMESERIES1                 14:54      4.473630  
TIMESERIES1                 15:00      4.489410  
TIMESERIES1                 15:06      4.505190  
TIMESERIES1                 15:12      4.520444  
TIMESERIES1                 15:18      4.535172  
TIMESERIES1                 15:24      4.549374  
TIMESERIES1                 15:30      4.563576  
TIMESERIES1                 15:36      4.577252  
TIMESERIES1                 15:42      4.590928  
TIMESERIES1                 15:48      4.604078  
TIMESERIES1                 15:54      4.616702  
TIMESERIES1                 16:00      4.628800  
TIMESERIES1                 16:06      4.640898  
TIMESERIES1                 16:12      4.652470  
TIMESERIES1                 16:18      4.664568  
TIMESERIES1                 16:24      4.676140  
TIMESERIES1                 16:30      4.687712  
TIMESERIES1                 16:36      4.699284  
TIMESERIES1                 16:42      4.710330  
TIMESERIES1                 16:48      4.721376  
TIMESERIES1                 16:54      4.732422  
TIMESERIES1                 17:00      4.743468  
TIMESERIES1                 17:06      4.753988  
TIMESERIES1                 17:12      4.764508  
TIMESERIES1                 17:18      4.775028  
TIMESERIES1                 17:24      4.785022  
TIMESERIES1                 17:30      4.795542  
TIMESERIES1                 17:36      4.805536  
TIMESERIES1                 17:42      4.815530  
TIMESERIES1                 17:48      4.824998  
TIMESERIES1                 17:54      4.834992  
TIMESERIES1                 18:00      4.844460  
TIMESERIES1                 18:06      4.853928  
TIMESERIES1                 18:12      4.862870  
TIMESERIES1                 18:18      4.872338  
TIMESERIES1                 18:24      4.881280  
TIMESERIES1                 18:30      4.890222  
TIMESERIES1                 18:36      4.898638  
TIMESERIES1                 18:42      4.907580  
TIMESERIES1                 18:48      4.915996  
TIMESERIES1                 18:54      4.924412  
TIMESERIES1                 19:00      4.932302  
TIMESERIES1                 19:06      4.940718  
TIMESERIES1                 19:12      4.948608  
TIMESERIES1                 19:18      4.956498  
TIMESERIES1                 19:24      4.964388  
TIMESERIES1                 19:30      4.971752  
TIMESERIES1                 19:36      4.979116  
TIMESERIES1                 19:42      4.986480  
TIMESERIES1                 19:48      4.993318  
TIMESERIES1                 19:54      5.000682  
TIMESERIES1                 20:00      5.007520  
TIMESERIES1                 20:06      5.014358  
TIMESERIES1                 20:12      5.021196  
TIMESERIES1                 20:18      5.028034  
TIMESERIES1                 20:24      5.034872  
TIMESERIES1                 20:30      5.041184  
TIMESERIES1                 20:36      5.048022  
TIMESERIES1                 20:42      5.054860  
TIMESERIES1                 20:48      5.061172  
TIMESERIES1                 20:54      5.068010  
TIMESERIES1                 21:00      5.074322  
TIMESERIES1                 21:06      5.081160  
TIMESERIES1                 21:12      5.087472  
TIMESERIES1                 21:18      5.094310  
TIMESERIES1                 21:24      5.100622  
TIMESERIES1                 21:30      5.106934  
TIMESERIES1                 21:36      5.113772  
TIMESERIES1                 21:42      5.120084  
TIMESERIES1                 21:48      5.126396  
TIMESERIES1                 21:54      5.132708  
TIMESERIES1                 22:00      5.139020  
TIMESERIES1                 22:06      5.145332  
TIMESERIES1                 22:12      5.151644  
TIMESERIES1                 22:18      5.157956  
TIMESERIES1                 22:24      5.164268  
TIMESERIES1                 22:30      5.170054  
TIMESERIES1                 22:36      5.176366  
TIMESERIES1                 22:42      5.182678  
TIMESERIES1                 22:48      5.188464  
TIMESERIES1                 22:54      5.194776  
TIMESERIES1                 23:00      5.200562  
TIMESERIES1                 23:06      5.206874  
TIMESERIES1                 23:12      5.212660  
TIMESERIES1                 23:18      5.218972  
TIMESERIES1                 23:24      5.224758  
TIMESERIES1                 23:30      5.230544  
TIMESERIES1                 23:36      5.236856  
TIMESERIES1                 23:42      5.242642  
TIMESERIES1                 23:48      5.248428  
TIMESERIES1                 23:54      5.254214  

[REPORT]
;;Reporting Options
INPUT      NO
CONTROLS   NO
SUBCATCHMENTS ALL
NODES ALL
LINKS ALL

[TAGS]

[MAP]
DIMENSIONS 2895527.729 456833.099 2898510.689 461791.159
Units      None

[COORDINATES]
;;Node           X-Coord            Y-Coord           
;;-------------- ------------------ ------------------
4577             2898154.600        460302.300        
4743             2897414.200        458037.900        
4743-2           2897415.198        458038.313        
6501             2898129.307        460210.597        
6502             2898135.400        460022.600        
6503             2898093.377        459944.877        
6504             2898040.200        459810.400        
6507             2897913.558        459555.368        
6515             2897562.306        458764.739        
6516             2897607.079        458767.164        
6517             2897688.243        458769.906        
6518             2897295.300        457990.200        
6519             2897292.500        458045.200        
6520             2897405.600        458049.900        
6521             2897449.625        458049.949        
6522             2897503.613        458054.778        
6523             2897302.113        457728.578        
6868             2898072.104        460297.506        
2888_FES         2897827.839        458776.216        
4537             2898375.100        460313.100        
4538             2897620.845        458065.141        
6524             2897305.123        457687.652        

[VERTICES]
;;Link           X-Coord            Y-Coord           
;;-------------- ------------------ ------------------
2888_2           2897689.013        458772.360        
LS4_18IN_FM      2897431.659        458038.002        
P_7281           2897301.000        457820.500        
PUMP-4           2897413.849        458042.985        

[Polygons]
;;Subcatchment   X-Coord            Y-Coord           
;;-------------- ------------------ ------------------
CAT_1205         2897481.657        457425.716        
CAT_1205         2897541.177        457419.348        
CAT_1205         2897577.438        457398.621        
CAT_1205         2897588.542        457350.939        
CAT_1205         2897598.992        457286.275        
CAT_1205         2897620.147        457201.676        
CAT_1205         2897430.602        457147.821        
CAT_1205         2897425.062        457116.794        
CAT_1205         2897324.556        457111.261        
CAT_1205         2897304.855        457112.837        
CAT_1205         2897304.067        457130.961        
CAT_1205         2897263.091        457130.173        
CAT_1205         2897259.151        457155.389        
CAT_1205         2897214.236        457155.389        
CAT_1205         2897215.024        457104.169        
CAT_1205         2897165.379        457103.381        
CAT_1205         2897163.016        457123.081        
CAT_1205         2897062.152        457115.989        
CAT_1205         2897061.364        457075.013        
CAT_1205         2897003.051        457073.437        
CAT_1205         2897003.051        457058.465        
CAT_1205         2896925.433        457061.617        