[TITLE]
Scenario Run :  BASE
Scenario Run :  NRCSDMENSIONLESS

[OPTIONS]
;Option and Files Scenario Set: BASE, Base Simulation Options
FLOW_UNITS		CFS
INFILTRATION		CURVE_NUMBER
FLOW_ROUTING		DYNWAVE
LINK_OFFSETS		DEPTH
MIN_SLOPE		0.000000
ALLOW_PONDING		NO
SKIP_STEADY_STATE 	NO
IGNORE_RAINFALL		NO
IGNORE_SNOWMELT		YES
IGNORE_GROUNDWATER	YES
IGNORE_QUALITY		YES

START_DATE		07/15/1977
START_TIME		00:00:00
REPORT_START_DATE	07/15/1977
REPORT_START_TIME	00:00:00
END_DATE		07/16/1977
END_TIME		06:00:00
SWEEP_START		01/01
SWEEP_END		01/01
DRY_DAYS		7.000000
REPORT_STEP		00:01:00
WET_STEP		00:05:00
DRY_STEP		00:05:00
ROUTING_STEP		10
RULE_STEP		00:00:00

INERTIAL_DAMPING	NONE
NORMAL_FLOW_LIMITED	BOTH
FORCE_MAIN_EQUATION	H-W
VARIABLE_STEP		0.750000
LENGTHENING_STEP	0
MIN_SURFAREA		12.566000
MAX_TRIALS		4
HEAD_TOLERANCE	0.005000
MINIMUM_STEP		0.000000

SYS_FLOW_TOL		5
LAT_FLOW_TOL		5

[FILES]

[RAINGAGES]
GAGE1	INTENSITY	1.000000	1.000000	TIMESERIES	25YEAR		
GAGE500YEAR	INTENSITY	1.000000	1.000000	TIMESERIES	500YEAR		

[HYDROGRAPHS]
; 
2050RTK	GAGE1
2050RTK	ALL	Short	0.020000	1.000000	1.000000	1.000000	1.000000	0.000000
2050RTK	ALL	Medium	0.020000	2.000000	2.000000	1.000000	1.000000	0.000000
2050RTK	ALL	Long	0.020000	3.000000	3.000000	1.000000	1.000000	0.000000
; 
BASERTK	GAGE1
BASERTK	ALL	Short	0.010000	1.000000	2.000000	1.000000	1.000000	0.000000
BASERTK	ALL	Medium	0.010000	2.000000	3.000000	1.000000	1.000000	0.000000
BASERTK	ALL	Long	0.010000	3.000000	4.000000	1.000000	1.000000	0.000000

[EVAPORATION]
CONSTANT	0.000000
DRY_ONLY	NO
RECOVERY	EVAPORATION

[TEMPERATURE]

[ADJUSTMENTS]

[SUBCATCHMENTS]
45	GAGE1	C	1.067258	0.000000	500.000000	1.000000	0.000000
47.5	GAGE1	B	0.503576	0.000000	500.000000	1.000000	0.000000
50	GAGE1	B	0.688776	0.000000	500.000000	1.000000	0.000000
52.5	GAGE1	B	1.405838	0.000000	500.000000	1.000000	0.000000
55	GAGE1	C	0.579845	0.000000	500.000000	1.000000	0.000000
57.5	GAGE1	C	0.794172	0.000000	500.000000	1.000000	0.000000
60	GAGE1	C	1.330074	0.000000	500.000000	1.000000	0.000000
62.5	GAGE1	B	1.201949	0.000000	500.000000	1.000000	0.000000
65	GAGE1	B	1.184439	0.000000	500.000000	1.000000	0.000000
67.5	GAGE1	B	0.386058	0.000000	500.000000	1.000000	0.000000
70	GAGE1	B	0.307937	0.000000	500.000000	1.000000	0.000000
72.5	GAGE1	B	0.964051	0.000000	500.000000	1.000000	0.000000
75	GAGE1	B	1.286597	0.000000	500.000000	1.000000	0.000000
77.5	GAGE1	B	3.215955	0.000000	500.000000	1.000000	0.000000
80	GAGE1	B	2.295827	0.000000	500.000000	1.000000	0.000000
82.5	GAGE1	B	1.895046	0.000000	500.000000	1.000000	0.000000
85	GAGE1	B	1.083781	0.000000	500.000000	1.000000	0.000000
87.5	GAGE1	B	2.426068	0.000000	500.000000	1.000000	0.000000
90	GAGE1	B	7.273174	0.000000	500.000000	1.000000	0.000000
92.5	GAGE1	B	6.542052	0.000000	500.000000	1.000000	0.000000
95	GAGE1	G	8.131895	0.000000	200.000000	1.000000	0.000000
96.5	GAGE1	C	3.617405	0.000000	600.000000	1.000000	0.000000
98	GAGE1	A	11.676852	0.000000	600.000000	1.000000	0.000000

[SUBAREAS]
45	0.000000	0.000000	0.000000	2.440000	1.000000	OUTLET
47.5	0.000000	0.000000	0.000000	2.210000	1.000000	OUTLET
50	0.000000	0.000000	0.000000	2.000000	1.000000	OUTLET
52.5	0.000000	0.000000	0.000000	1.810000	1.000000	OUTLET
55	0.000000	0.000000	0.000000	1.640000	1.000000	OUTLET
57.5	0.000000	0.000000	0.000000	1.480000	1.000000	OUTLET
60	0.000000	0.000000	0.000000	1.330000	1.000000	OUTLET
62.5	0.000000	0.000000	0.000000	1.200000	1.000000	OUTLET
65	0.000000	0.000000	0.000000	1.080000	1.000000	OUTLET
67.5	0.000000	0.000000	0.000000	0.960000	1.000000	OUTLET
70	0.000000	0.000000	0.000000	0.860000	1.000000	OUTLET
72.5	0.000000	0.000000	0.000000	0.760000	1.000000	OUTLET
75	0.000000	0.000000	0.000000	0.670000	1.000000	OUTLET
77.5	0.000000	0.000000	0.000000	0.580000	1.000000	OUTLET
80	0.000000	0.000000	0.000000	0.500000	1.000000	OUTLET
82.5	0.000000	0.000000	0.000000	0.420000	1.000000	OUTLET
85	0.000000	0.000000	0.000000	0.350000	1.000000	OUTLET
87.5	0.000000	0.000000	0.000000	0.290000	1.000000	OUTLET
90	0.000000	0.000000	0.000000	0.220000	1.000000	OUTLET
92.5	0.000000	0.000000	0.000000	0.160000	1.000000	OUTLET
95	0.000000	0.000000	0.000000	0.110000	1.000000	OUTLET
96.5	0.000000	0.000000	0.000000	0.070000	1.000000	OUTLET
98	0.000000	0.000000	0.000000	0.040000	1.000000	OUTLET

[INFILTRATION]
45	45.000000	1.000000	1.000000
47.5	47.500000	1.000000	1.000000
50	50.000000	1.000000	1.000000
52.5	52.500000	1.000000	1.000000
55	55.000000	1.000000	1.000000
57.5	57.500000	1.000000	1.000000
60	60.000000	1.000000	1.000000
62.5	62.500000	1.000000	1.000000
65	65.000000	1.000000	1.000000
67.5	67.500000	1.000000	1.000000
70	70.000000	1.000000	1.000000
72.5	72.500000	1.000000	1.000000
75	75.000000	1.000000	1.000000
77.5	77.500000	1.000000	1.000000
80	80.000000	1.000000	1.000000
82.5	82.500000	1.000000	1.000000
85	85.000000	1.000000	1.000000
87.5	87.500000	1.000000	1.000000
90	90.000000	1.000000	1.000000
92.5	92.500000	1.000000	1.000000
95	95.000000	1.000000	1.000000
96.5	96.500000	1.000000	1.000000
98	98.000000	1.000000	1.000000

[AQUIFERS]
AQ	0.500000	0.150000	0.300000	10.000000	1.000000	15.000000	0.350000	0.350000	0.002000	0.000000	5.000000	0.250000

[GROUNDWATER]
92.5	AQ	B	0.000000	1.000000	1.000000	1.000000	1.000000	0.000000	0.000000	0.000000	0.000000	0.000000	0.250000
95	AQ	C	0.000000	1.000000	1.000000	1.000000	1.000000	0.000000	0.000000	0.000000	0.000000	0.000000	0.250000
96.5	AQ	B	0.000000	1.000000	1.000000	1.000000	1.000000	0.000000	0.000000	0.000000	0.000000	0.000000	0.250000
98	AQ	G	0.000000	1.000000	1.000000	1.000000	1.000000	0.000000	0.000000	0.000000	0.000000	0.000000	0.250000

[GWF]

[SNOWPACKS]

[LID_CONTROLS]
LID-102	BC
LID-102	SURFACE	1.000000	0.100000	0.100000	1.000000	5.000000
LID-102	SOIL	1.000000	0.500000	0.200000	0.100000	0.500000	10.000000	3.500000
LID-102	STORAGE	1.000000	0.750000	0.500000	0.000000
LID-102	DRAIN	0.000000	0.500000	6.000000	6.000000	0.000000	0.000000

BR	BC
BR	SURFACE	1.000000	0.100000	0.100000	1.000000	5.000000
BR	SOIL	1.000000	0.500000	0.200000	0.100000	0.500000	10.000000	3.500000
BR	STORAGE	1.000000	0.750000	0.500000	0.000000
BR	DRAIN	0.000000	0.500000	6.000000	6.000000	0.000000	0.000000

RG	RG
RG	SURFACE	5.000000	0.100000	0.100000	1.000000	5.000000
RG	SOIL	1.000000	0.500000	0.200000	0.100000	0.500000	10.000000	3.500000
RG	STORAGE	1.000000	0.750000	0.500000	0.000000


[JUNCTIONS]
A	1.100000	20.000000	0.000000	0.000000	0.000000
B	9.000000	20.000000	0.000000	0.000000	0.000000
C	8.000000	6.000000	0.000000	0.000000	0.000000
; New Junction
E	0.500000	4.000000	0.000000	0.000000	0.000000
G	3.000000	5.000000	0.000000	0.000000	0.000000

[OUTFALLS]
OUTLET	0.000000	FREE	NO

[DIVIDERS]

[STORAGE]

[CONDUITS]
A	A	E	220.000000	0.015000	0.000000	0.000000	0.000000	0.000000
B	G	A	182.780407	0.015000	0.000000	0.000000	0.000000	0.000000
C	B	C	505.000000	0.024000	0.000000	0.000000	0.000000	0.000000
D	C	G	263.256269	0.024000	0.000000	0.000000	0.000000	0.000000
; New Conduit
F	E	OUTLET	255.174254	0.015000	0.000000	0.000000	0.000000	0.000000

[PUMPS]

[ORIFICES]

[WEIRS]

[XSECTIONS]
A	CIRCULAR	0.300000	0.000000	0.000000	0.000000	1	0
B	CIRCULAR	0.300000	0.000000	0.000000	0.000000	1	0
C	CIRCULAR	0.300000	0.000000	0.000000	0.000000	1	0
D	CIRCULAR	0.300000	0.000000	0.000000	0.000000	1	0
F	CIRCULAR	0.300000	0.000000	0.000000	0.000000	1	0

[TRANSECTS]

[LOSSES]
A	0.000000	0.000000	0.000000	NO	0.100000
B	0.000000	0.000000	0.000000	NO	0.100000
C	0.000000	0.000000	0.000000	NO	0.000000
D	0.000000	0.000000	0.000000	NO	0.000000
F	0.000000	0.000000	0.000000	NO	0.100000

[CONTROLS]

[POLLUTANTS]

[LANDUSES]

[COVERAGES]

[BUILDUP]

[WASHOFF]

[TREATMENT]

[INFLOWS]
C	FLOW	""	FLOW  1.0	1.000000	0.000000

[DWF]
A	FLOW	0.031270	""	""	""	""
B	FLOW	0.031270	""	""	""	""
C	FLOW	0.031270	""	""	""	""
G	FLOW	0.031270	""	""	""	""

[RDII]

[LOADINGS]

[CURVES]
; 
CUNETTE	SHAPE	0.000000	0.000000
CUNETTE	0.020000	0.140000
CUNETTE	0.040000	0.195950
CUNETTE	0.060000	0.237500
CUNETTE	0.080000	0.271300
CUNETTE	0.100000	0.300000
CUNETTE	0.120000	0.324950
CUNETTE	0.140000	0.347000
CUNETTE	0.160000	0.366600
CUNETTE	0.180000	0.384200
CUNETTE	0.200000	0.400000
CUNETTE	0.220000	0.414250
CUNETTE	0.240000	0.427100
CUNETTE	0.260000	0.438650
CUNETTE	0.280000	0.449000
CUNETTE	0.300000	0.458250
CUNETTE	0.320000	0.933000
CUNETTE	0.340000	0.947400
CUNETTE	0.360000	0.960000
CUNETTE	0.380000	0.970800
CUNETTE	0.400000	0.979800
CUNETTE	0.420000	0.987100
CUNETTE	0.440000	0.992800
CUNETTE	0.460000	0.996800
CUNETTE	0.480000	0.999200
CUNETTE	0.500000	1.000000
CUNETTE	0.520000	0.999200
CUNETTE	0.540000	0.996800
CUNETTE	0.560000	0.992800
CUNETTE	0.580000	0.987100
CUNETTE	0.600000	0.979800
CUNETTE	0.620000	0.970800
CUNETTE	0.640000	0.960000
CUNETTE	0.660000	0.947400
CUNETTE	0.680000	0.933000
CUNETTE	0.700000	0.916500
CUNETTE	0.720000	0.898000
CUNETTE	0.740000	0.877300
CUNETTE	0.760000	0.854200
CUNETTE	0.780000	0.828500
CUNETTE	0.800000	0.800000
CUNETTE	0.820000	0.768400
CUNETTE	0.840000	0.733200
CUNETTE	0.860000	0.694000
CUNETTE	0.880000	0.649900
CUNETTE	0.900000	0.600000
CUNETTE	0.920000	0.542600
CUNETTE	0.940000	0.475000
CUNETTE	0.960000	0.391900
CUNETTE	0.980000	0.280000
CUNETTE	1.000000	0.000000

[TIMESERIES]
RAINSERIES1	07/15/1977	06:30	0.000000
RAINSERIES1	06:35	0.840000
RAINSERIES1	06:40	0.040000
RAINSERIES1	06:45	0.020000
RAINSERIES1	06:50	0.000000
RAINSERIES1	07:05	0.000000
RAINSERIES1	07:10	0.680000
RAINSERIES1	07:15	0.880000
RAINSERIES1	07/15/1977	07:20	2.020000
RAINSERIES1	07:25	2.130000
RAINSERIES1	07:30	0.630000
RAINSERIES1	07:35	2.330000
RAINSERIES1	07:40	0.310000
RAINSERIES1	07/15/1977	07:45	0.200000
RAINSERIES1	07:50	0.000000
RAINSERIES1	08:00	0.000000
RAINSERIES1	08:05	0.020000
RAINSERIES1	07/15/1977	08:10	0.000000
RAINSERIES1	08:25	0.000000
RAINSERIES1	08:30	0.220000
RAINSERIES1	07/15/1977	08:35	2.390000
RAINSERIES1	08:40	0.400000
RAINSERIES1	08:45	0.860000
RAINSERIES1	08:50	2.790000
RAINSERIES1	08:55	1.380000
RAINSERIES1	07/15/1977	09:00	1.080000
RAINSERIES1	09:05	0.640000
RAINSERIES1	09:10	0.020000
RAINSERIES1	09:15	0.150000
RAINSERIES1	09:20	0.000000

CONSTANTRAIN	0:00	0.000000
CONSTANTRAIN	1:00	0.000000
CONSTANTRAIN	2:00	1.000000
CONSTANTRAIN	3:00	0.000000

10YEAR	0:00	0.000000
10YEAR	1:00	0.000000
10YEAR	2:00	3.500000
10YEAR	3:00	0.000000

25YEAR	0:00	0.000000
25YEAR	1:00	0.000000
25YEAR	2:00	5.000000
25YEAR	3:00	0.000000

50YEAR	0:00	0.000000
50YEAR	1:00	0.000000
50YEAR	2:00	7.000000
50YEAR	3:00	0.000000

100YEAR	0:00	2.272727
100YEAR	1:00	4.545455
100YEAR	2:00	11.363636
100YEAR	3:00	4.545455
100YEAR	4:00	2.272727
100YEAR	5:00	0.000000

500YEAR	0:00	0.000000
500YEAR	1:00	0.000000
500YEAR	2:00	15.000000
500YEAR	3:00	0.000000


[PATTERNS]
; 
EVAPORATION	MONTHLY	5.000000	5.000000	2.000000	2.000000	3.000000
EVAPORATION	3.000000	2.000000	2.000000	2.000000	1.000000
EVAPORATION	1.000000	1.000000
; 
NORMALDAYS	DAILY	1.000000	1.000000	1.000000	0.000000	1.000000
NORMALDAYS	1.000000	1.000000
; 
ODDDATYPATTERN	HOURLY	0.000000	0.000000	0.000000	0.000000	0.000000
ODDDATYPATTERN	0.000000	0.000000	1.000000	1.000000	1.000000
ODDDATYPATTERN	1.000000	1.000000	0.000000	0.000000	0.000000
ODDDATYPATTERN	1.000000	1.000000	1.000000	1.000000	1.000000
ODDDATYPATTERN	0.000000	0.000000	0.000000	0.000000
; 
ONEDAY	DAILY	0.000000	0.000000	0.000000	1.000000	0.000000
ONEDAY	0.000000	0.000000
; 
RUNPATTERNS	MONTHLY	1.000000	2.000000	1.000000	2.000000	1.000000
RUNPATTERNS	2.000000	1.000000	2.000000	1.000000	2.000000
RUNPATTERNS	1.000000	2.000000

[REPORT]
;Report Option Set: BASE, Base Simulation Report
INPUT YES
CONTINUITY YES
FLOWSTATS YES
CONTROLS NO
AVERAGES NO
SUBCATCHMENTS  ALL
NODES  ALL
LINKS  ALL

[COORDINATES]
A	95.350000	315.596000
B	295.273000	482.198000
C	448.088000	412.110000
E	71.618000	115.209000
G	257.253000	230.765000
OUTLET	-183.421000	123.522000


[POLYGONS]

45	924.944000	711.954000
45	868.059000	633.049000
45	855.214000	634.884000
45	794.658000	634.884000
45	750.618000	671.584000
45	805.668000	724.799000
45	831.358000	724.799000

47.5	260.669000	998.216000
47.5	286.359000	963.351000
47.5	264.339000	956.011000
47.5	229.474000	932.156000
47.5	185.434000	932.156000
47.5	183.599000	943.166000
47.5	178.093000	987.206000

50	603.817000	992.711000
50	636.847000	937.661000
50	633.177000	933.991000
50	583.632000	910.136000
50	567.116000	906.466000
50	515.736000	956.011000
50	532.251000	989.041000

52.5	735.938000	961.516000
52.5	923.109000	948.671000
52.5	919.439000	928.486000
52.5	858.884000	895.456000
52.5	752.453000	869.765000
52.5	691.897000	899.126000
52.5	691.897000	921.146000

55	772.638000	816.550000
55	921.274000	801.870000
55	921.274000	781.685000
55	745.113000	765.170000

57.5	776.308000	581.668000
57.5	868.059000	517.443000
57.5	862.554000	513.773000
57.5	858.884000	500.928000
57.5	840.533000	471.567000
57.5	809.338000	455.052000
57.5	750.618000	515.608000

60	785.483000	376.147000
60	915.769000	313.756000
60	912.099000	315.591000
60	910.264000	304.581000
60	890.079000	271.551000
60	835.028000	236.686000
60	783.648000	245.861000
60	757.958000	288.066000
60	776.308000	346.786000

62.5	746.948000	170.625000
62.5	869.894000	124.750000
62.5	866.224000	113.740000
62.5	860.719000	99.060000
62.5	842.368000	60.524000
62.5	790.988000	20.154000
62.5	756.123000	36.669000
62.5	743.278000	144.935000

65	752.453000	-75.267000
65	858.884000	-122.977000
65	853.379000	-119.307000
65	868.059000	-150.502000
65	805.668000	-198.213000
65	704.742000	-139.492000
65	710.247000	-104.627000
65	713.918000	-89.947000

67.5	506.561000	-209.223000
67.5	625.837000	-187.203000
67.5	618.497000	-200.048000
67.5	596.477000	-231.243000
67.5	510.231000	-240.418000
67.5	502.891000	-242.253000
67.5	502.891000	-214.728000

70	293.699000	-185.368000
70	363.430000	-231.243000
70	361.595000	-236.748000
70	335.905000	-240.418000
70	266.174000	-238.583000
70	258.834000	-242.253000
70	269.844000	-222.068000
70	275.349000	-214.728000
70	282.689000	-201.883000

72.5	123.043000	-141.327000
72.5	222.134000	-167.017000
72.5	231.309000	-185.368000
72.5	222.134000	-196.378000
72.5	201.949000	-223.903000
72.5	108.363000	-225.738000
72.5	79.003000	-200.048000
72.5	73.498000	-172.523000

75	-116.029000	-90.817000
75	48.877000	-102.190000
75	-21.255000	-164.741000
75	-93.284000	-187.487000
75	-127.402000	-181.800000
75	-153.939000	-145.786000
75	-157.730000	-126.831000
75	-133.089000	-100.294000

77.5	-442.052000	64.612000
77.5	-182.371000	-20.684000
77.5	-182.371000	-26.371000
77.5	-188.058000	-32.057000
77.5	-201.326000	-56.698000
77.5	-510.289000	-92.713000
77.5	-548.199000	-71.862000
77.5	-487.543000	3.957000

80	-561.467000	312.920000
80	-447.738000	161.282000
80	-451.529000	155.595000
80	-542.512000	148.013000
80	-641.077000	134.745000
80	-660.032000	197.296000
80	-614.540000	295.861000
80	-569.049000	314.816000

82.5	-650.555000	538.482000
82.5	-546.303000	430.440000
82.5	-550.094000	426.649000
82.5	-667.614000	356.516000
82.5	-728.269000	348.934000
82.5	-705.524000	481.618000

85	-170.998000	822.804000
85	-36.419000	714.762000
85	-207.012000	707.180000
85	-203.221000	781.104000

87.5	37.505000	951.697000
87.5	168.293000	860.714000
87.5	143.651000	792.477000
87.5	-15.569000	767.835000
87.5	-36.419000	796.268000
87.5	-15.569000	894.832000

90	-263.877000	832.282000
90	-354.860000	529.005000
90	-364.337000	523.318000
90	-398.456000	523.318000
90	-430.679000	519.527000
90	-529.244000	544.169000
90	-593.690000	682.539000
90	-574.735000	726.135000
90	-398.456000	855.027000

92.5	448.758000	686.264000
92.5	514.819000	717.459000
92.5	542.344000	755.994000
92.5	463.265000	925.535000
92.5	339.427000	951.585000
92.5	243.585000	737.621000
92.5	276.267000	633.049000
92.5	353.337000	603.688000

95	609.471000	-40.234000
95	676.555000	206.416000
95	422.299000	174.462000
95	214.943000	58.856000
95	100.701000	-22.781000
95	403.949000	-18.214000

96.5	708.718000	347.243000
96.5	648.775000	565.153000
96.5	630.424000	645.894000
96.5	615.744000	702.779000
96.5	562.529000	642.224000
96.5	520.324000	548.638000
96.5	528.416000	460.094000
96.5	599.624000	408.970000
96.5	635.929000	330.271000

98	-219.235000	343.349000
98	64.275000	354.253000
98	195.125000	539.625000
98	122.977000	608.350000
98	126.647000	634.040000
98	-62.359000	628.535000
98	-152.275000	661.565000
98	-317.426000	608.350000
98	-218.335000	547.794000
98	-313.756000	441.363000

[VERTICES]


[SYMBOLS]
GAGE1	242.100000	568.930000
GAGE500YEAR	284.752000	557.001000

[MAP]
DIMENSIONS	-810.929650	-304.276450	1007.604650	1060.239450

