[TITLE]

[OPTIONS]
;Option and Files Scenario Set: IDONLY
FLOW_UNITS		CFS
INFILTRATION		GREEN_AMPT
FLOW_ROUTING		DYNWAVE
LINK_OFFSETS		DEPTH
MIN_SLOPE		0.000000
ALLOW_PONDING		NO
SKIP_STEADY_STATE 	NO
IGNORE_RAINFALL		NO
IGNORE_SNOWMELT		YES
IGNORE_GROUNDWATER	YES
IGNORE_QUALITY		YES

START_DATE		01/01/1997
START_TIME		00:00
REPORT_START_DATE	01/01/1997
REPORT_START_TIME	00:00
END_DATE		01/02/1997
END_TIME		02:07
SWEEP_START		01/01
SWEEP_END		12/31
DRY_DAYS		5.000000
REPORT_STEP		00:05:00
WET_STEP		00:00:30
DRY_STEP		00:01:00
ROUTING_STEP		30
RULE_STEP		00:00:00

INERTIAL_DAMPING	NONE
NORMAL_FLOW_LIMITED	BOTH
FORCE_MAIN_EQUATION	H-W
VARIABLE_STEP		0.950000
LENGTHENING_STEP	10
MIN_SURFAREA		12.566000
MAX_TRIALS		8
HEAD_TOLERANCE	0.000100
MINIMUM_STEP		0.000000
SURCHARGE_METHOD	EXTRAN


[FILES]

[RAINGAGES]
;  July rainfall event
RAINGAGE-13	VOLUME	0.016667	1.000000	TIMESERIES	100-YEAR		

[HYDROGRAPHS]
; 
CALB_HYD	RAINGAGE-13
CALB_HYD	ALL	Short	0.015000	1.249000	1.977000	0.000000	0.000000	0.000000
CALB_HYD	ALL	Medium	0.009000	2.194000	4.296000	0.000000	0.000000	0.000000
CALB_HYD	ALL	Long	0.006000	7.172000	2.152000	0.000000	0.000000	0.000000
; 
COLUMBIA_ST	RAINGAGE-13
COLUMBIA_ST	ALL	Short	0.030000	1.000000	1.000000	0.000000	0.000000	0.000000
COLUMBIA_ST	ALL	Medium	0.030000	2.000000	3.200000	0.000000	0.000000	0.000000
COLUMBIA_ST	ALL	Long	0.010000	3.000000	7.500000	0.000000	0.000000	0.000000
; 
FRANKLIN_AVE	RAINGAGE-13
FRANKLIN_AVE	ALL	Short	0.020000	1.000000	1.000000	0.000000	0.000000	0.000000
FRANKLIN_AVE	ALL	Medium	0.040000	2.000000	3.200000	0.000000	0.000000	0.000000
FRANKLIN_AVE	ALL	Long	0.020000	3.000000	7.500000	0.000000	0.000000	0.000000
; 
HUFFMAN_ST	RAINGAGE-13
HUFFMAN_ST	ALL	Short	0.020000	1.000000	1.000000	0.000000	0.000000	0.000000
HUFFMAN_ST	ALL	Medium	0.010000	2.000000	3.200000	0.000000	0.000000	0.000000
HUFFMAN_ST	ALL	Long	0.010000	3.000000	5.000000	0.000000	0.000000	0.000000
; 
HYDRO1	RAINGAGE-13
HYDRO1	ALL	Short	0.013848	1.318333	2.883270	0.000000	0.000000	0.000000
HYDRO1	ALL	Medium	0.012916	2.596667	2.253851	0.000000	0.000000	0.000000
HYDRO1	ALL	Long	0.010095	12.322222	1.386632	0.000000	0.000000	0.000000
; 
JULIAN_ST	RAINGAGE-13
JULIAN_ST	ALL	Short	0.020000	1.000000	1.000000	0.000000	0.000000	0.000000
JULIAN_ST	ALL	Medium	0.100000	2.000000	3.200000	0.000000	0.000000	0.000000
JULIAN_ST	ALL	Long	0.030000	3.000000	5.000000	0.000000	0.000000	0.000000
; 
NORTH_AVE	RAINGAGE-13
NORTH_AVE	ALL	Short	0.020000	1.000000	1.000000	0.000000	0.000000	0.000000
NORTH_AVE	ALL	Medium	0.010000	2.000000	3.200000	0.000000	0.000000	0.000000
NORTH_AVE	ALL	Long	0.010000	3.000000	7.500000	0.000000	0.000000	0.000000
; 
RDII_HYD	RAINGAGE-13
RDII_HYD	ALL	Short	0.010000	0.850000	1.446000	0.000000	0.000000	0.000000
RDII_HYD	ALL	Medium	0.007000	3.392000	3.112000	0.000000	0.000000	0.000000
RDII_HYD	ALL	Long	0.005000	10.689000	1.460000	0.000000	0.000000	0.000000
; 
RDII_HYD_HI	RAINGAGE-13
RDII_HYD_HI	ALL	Short	0.050000	1.000000	1.000000	0.000000	0.000000	0.000000
RDII_HYD_HI	ALL	Medium	0.050000	2.000000	4.000000	0.000000	0.000000	0.000000
RDII_HYD_HI	ALL	Long	0.050000	3.000000	4.000000	0.000000	0.000000	0.000000

[EVAPORATION]
CONSTANT	0.100000
DRY_ONLY	NO

[TEMPERATURE]
; BASE Run Climatology Settings

[SUBCATCHMENTS]
;  C10
C10	RAINGAGE-13	117	9.657878	90.000000	1066.435908	1.400000	0.000000	BORLÄNGE
;  C13
C13	RAINGAGE-13	JCT-10	1.803174	89.000000	460.800277	0.800000	0.000000	BORLÄNGE
;  C15
C15	RAINGAGE-13	232	9.876764	62.000000	1078.453020	2.200000	0.000000	BORLÄNGE
;  C20
C20	RAINGAGE-13	281	7.607752	44.000000	946.503193	2.700000	0.000000	BORLÄNGE
;  C25
C25	RAINGAGE-13	1114	14.867473	34.000000	1323.160338	2.300000	0.000000	BORLÄNGE
;  C30
C30	RAINGAGE-13	384	6.717236	26.000000	889.383799	3.300000	0.000000	BORLÄNGE
;  C33
C33	RAINGAGE-13	1115	7.127885	35.000000	916.166175	2.200000	0.000000	BORLÄNGE
;  C35
C35	RAINGAGE-13	421	13.463804	40.000000	1259.150941	1.100000	0.000000	BORLÄNGE
;  C45
C45	RAINGAGE-13	1001	10.690976	35.000000	1122.025084	1.100000	0.000000	BORLÄNGE
;  C50
C50	RAINGAGE-13	387	19.088115	46.000000	1499.254709	1.500000	0.000000	BORLÄNGE
;  C55
C55	RAINGAGE-13	183	6.454598	48.000000	871.823366	3.000000	0.000000	BORLÄNGE
;  C57
C57	RAINGAGE-13	267	12.810948	48.000000	1228.243644	3.000000	0.000000	BORLÄNGE
;  C60
C60	RAINGAGE-13	323	15.307516	54.000000	1342.598830	1.600000	0.000000	BORLÄNGE
;  C65
C65	RAINGAGE-13	257	6.246600	61.000000	857.661142	4.200000	0.000000	BORLÄNGE
;  D10
D10	RAINGAGE-13	136	9.788079	79.000000	1073.600306	1.200000	0.000000	BORLÄNGE
;  D15
D15	RAINGAGE-13	31	5.991881	56.000000	839.992650	1.400000	0.000000	BORLÄNGE
;  D20
D20	RAINGAGE-13	19	6.903650	54.000000	901.640236	3.300000	0.000000	BORLÄNGE
;  D21
D21	RAINGAGE-13	7	14.957666	21.000000	1327.167753	3.300000	0.000000	BORLÄNGE
;  D22
D22	RAINGAGE-13	17	13.951151	25.000000	1281.736974	1.300000	0.000000	BORLÄNGE
;  D25
D25	RAINGAGE-13	JCT-184	5.690174	24.000000	818.571580	1.000000	0.000000	BORLÄNGE
;  D30
D30	RAINGAGE-13	201	14.354926	23.000000	1300.152766	0.200000	0.000000	BORLÄNGE
;  D32
D32	RAINGAGE-13	956	3.313461	52.000000	624.647253	0.400000	0.000000	BORLÄNGE
;  D35
D35	RAINGAGE-13	348	8.142201	24.000000	979.185154	1.100000	0.000000	BORLÄNGE
;  D40
D40	RAINGAGE-13	269	10.204143	27.000000	1096.180734	1.500000	0.000000	BORLÄNGE
;  D45
D45	RAINGAGE-13	95	15.999290	34.000000	1372.600827	1.500000	0.000000	BORLÄNGE
;  D50
D50	RAINGAGE-13	187	8.393006	39.000000	994.151685	1.800000	0.000000	BORLÄNGE
;  D55
D55	RAINGAGE-13	46	7.017997	26.000000	909.076600	0.300000	0.000000	BORLÄNGE
;  D60
D60	RAINGAGE-13	200	12.647283	25.000000	1220.372776	1.200000	0.000000	BORLÄNGE
;  D65
D65	RAINGAGE-13	209	8.644601	24.000000	1008.942412	2.500000	0.000000	BORLÄNGE
;  D70
D70	RAINGAGE-13	105	7.284719	44.000000	926.190423	1.600000	0.000000	BORLÄNGE

[SUBAREAS]
C10	0.020000	0.300000	0.100000	0.250000	25.000000	OUTLET
C13	0.020000	0.300000	0.100000	0.250000	25.000000	OUTLET
C15	0.020000	0.270000	0.100000	0.230000	25.000000	OUTLET
C20	0.020000	0.230000	0.100000	0.210000	25.000000	OUTLET
C25	0.020000	0.270000	0.100000	0.230000	25.000000	OUTLET
C30	0.020000	0.290000	0.100000	0.250000	25.000000	OUTLET
C33	0.020000	0.150000	0.100000	0.170000	25.000000	OUTLET
C35	0.020000	0.240000	0.100000	0.220000	25.000000	OUTLET
C45	0.020000	0.260000	0.100000	0.230000	25.000000	OUTLET
C50	0.020000	0.260000	0.100000	0.230000	25.000000	OUTLET
C55	0.020000	0.280000	0.100000	0.240000	25.000000	OUTLET
C57	0.020000	0.280000	0.100000	0.240000	25.000000	OUTLET
C60	0.020000	0.230000	0.100000	0.210000	25.000000	OUTLET
C65	0.020000	0.270000	0.100000	0.230000	25.000000	OUTLET
D10	0.020000	0.260000	0.100000	0.230000	25.000000	OUTLET
D15	0.020000	0.290000	0.100000	0.250000	25.000000	OUTLET
D20	0.020000	0.270000	0.100000	0.230000	25.000000	OUTLET
D21	0.020000	0.260000	0.100000	0.230000	25.000000	OUTLET
D22	0.020000	0.250000	0.100000	0.230000	25.000000	OUTLET
D25	0.020000	0.250000	0.100000	0.220000	25.000000	OUTLET
D30	0.020000	0.280000	0.100000	0.240000	25.000000	OUTLET
D32	0.020000	0.280000	0.100000	0.240000	25.000000	OUTLET
D35	0.020000	0.270000	0.100000	0.240000	25.000000	OUTLET
D40	0.020000	0.250000	0.100000	0.220000	25.000000	OUTLET
D45	0.020000	0.240000	0.100000	0.220000	25.000000	OUTLET
D50	0.020000	0.240000	0.100000	0.220000	25.000000	OUTLET
D55	0.020000	0.240000	0.100000	0.220000	25.000000	OUTLET
D60	0.020000	0.250000	0.100000	0.220000	25.000000	OUTLET
D65	0.020000	0.240000	0.100000	0.220000	25.000000	OUTLET
D70	0.020000	0.250000	0.100000	0.230000	25.000000	OUTLET

[INFILTRATION]
C10	5.000000	1.000000	0.250000
C13	5.000000	1.000000	0.250000
C15	5.000000	1.000000	0.250000
C20	5.000000	1.000000	0.250000
C25	5.000000	1.000000	0.250000
C30	5.000000	1.000000	0.250000
C33	5.000000	1.000000	0.250000
C35	5.000000	1.000000	0.250000
C45	5.000000	1.000000	0.250000
C50	5.000000	1.000000	0.250000
C55	5.000000	1.000000	0.250000
C57	5.000000	1.000000	0.250000
C60	5.000000	1.000000	0.250000
C65	5.000000	1.000000	0.250000
D10	5.000000	1.000000	0.250000
D15	5.000000	1.000000	0.250000
D20	5.000000	1.000000	0.250000
D21	5.000000	1.000000	0.250000
D22	5.000000	1.000000	0.250000
D25	5.000000	1.000000	0.250000
D30	5.000000	1.000000	0.250000
D32	5.000000	1.000000	0.250000
D35	5.000000	1.000000	0.250000
D40	5.000000	1.000000	0.250000
D45	5.000000	1.000000	0.250000
D50	5.000000	1.000000	0.250000
D55	5.000000	1.000000	0.250000
D60	5.000000	1.000000	0.250000
D65	5.000000	1.000000	0.250000
D70	5.000000	1.000000	0.250000

[AQUIFERS]
; New Aquifer
AQUIFER-1	0.400000	0.150000	0.300000	5.000000	5.000000	5.000000	0.500000	10.000000	0.020000	0.000000	2.000000	0.250000	SEASONAL

[GROUNDWATER]
C10	AQUIFER-1	117	10.000000	0.001000	1.000000	0.000000	1.000000	0.000000	0.000000	1.000000	0.000000	2.000000	0.250000
C13	AQUIFER-1	JCT-10	10.000000	0.001000	1.000000	0.000000	1.000000	0.000000	0.000000	1.000000	0.000000	2.000000	0.250000
C15	AQUIFER-1	232	10.000000	0.001000	1.000000	0.000000	1.000000	0.000000	0.000000	1.000000	0.000000	2.000000	0.250000
C20	AQUIFER-1	281	10.000000	0.001000	1.000000	0.000000	1.000000	0.000000	0.000000	1.000000	0.000000	2.000000	0.250000
C25	AQUIFER-1	1114	10.000000	0.001000	1.000000	0.000000	1.000000	0.000000	0.000000	1.000000	0.000000	2.000000	0.250000
C30	AQUIFER-1	384	10.000000	0.001000	1.000000	0.000000	1.000000	0.000000	0.000000	1.000000	0.000000	2.000000	0.250000
C33	AQUIFER-1	1115	10.000000	0.001000	1.000000	0.000000	1.000000	0.000000	0.000000	1.000000	0.000000	2.000000	0.250000
C35	AQUIFER-1	421	10.000000	0.001000	1.000000	0.000000	1.000000	0.000000	0.000000	1.000000	0.000000	2.000000	0.250000
C45	AQUIFER-1	1001	10.000000	0.001000	1.000000	0.000000	1.000000	0.000000	0.000000	1.000000	0.000000	2.000000	0.250000
C50	AQUIFER-1	387	10.000000	0.001000	1.000000	0.000000	1.000000	0.000000	0.000000	1.000000	0.000000	2.000000	0.250000
C55	AQUIFER-1	183	10.000000	0.001000	1.000000	0.000000	1.000000	0.000000	0.000000	1.000000	0.000000	2.000000	0.250000
C57	AQUIFER-1	267	10.000000	0.001000	1.000000	0.000000	1.000000	0.000000	0.000000	1.000000	0.000000	2.000000	0.250000
C60	AQUIFER-1	323	10.000000	0.001000	1.000000	0.000000	1.000000	0.000000	0.000000	1.000000	0.000000	2.000000	0.250000
C65	AQUIFER-1	257	10.000000	0.001000	1.000000	0.000000	1.000000	0.000000	0.000000	1.000000	0.000000	2.000000	0.250000
D10	AQUIFER-1	136	10.000000	0.001000	1.000000	0.000000	1.000000	0.000000	0.000000	1.000000	0.000000	2.000000	0.250000
D15	AQUIFER-1	31	10.000000	0.001000	1.000000	0.000000	1.000000	0.000000	0.000000	1.000000	0.000000	2.000000	0.250000
D20	AQUIFER-1	19	10.000000	0.001000	1.000000	0.000000	1.000000	0.000000	0.000000	1.000000	0.000000	2.000000	0.250000
D21	AQUIFER-1	7	10.000000	0.001000	1.000000	0.000000	1.000000	0.000000	0.000000	1.000000	0.000000	2.000000	0.250000
D22	AQUIFER-1	17	10.000000	0.001000	1.000000	0.000000	1.000000	0.000000	0.000000	1.000000	0.000000	2.000000	0.250000
D25	AQUIFER-1	32	10.000000	0.001000	1.000000	0.000000	1.000000	0.000000	0.000000	1.000000	0.000000	2.000000	0.250000
D30	AQUIFER-1	201	10.000000	0.001000	1.000000	0.000000	1.000000	0.000000	0.000000	1.000000	0.000000	2.000000	0.250000
D32	AQUIFER-1	956	10.000000	0.001000	1.000000	0.000000	1.000000	0.000000	0.000000	1.000000	0.000000	2.000000	0.250000
D35	AQUIFER-1	348	10.000000	0.001000	1.000000	0.000000	1.000000	0.000000	0.000000	1.000000	0.000000	2.000000	0.250000
D40	AQUIFER-1	269	10.000000	0.001000	1.000000	0.000000	1.000000	0.000000	0.000000	1.000000	0.000000	2.000000	0.250000
D45	AQUIFER-1	95	10.000000	0.001000	1.000000	0.000000	1.000000	0.000000	0.000000	1.000000	0.000000	2.000000	0.250000
D50	AQUIFER-1	187	10.000000	0.001000	1.000000	0.000000	1.000000	0.000000	0.000000	1.000000	0.000000	2.000000	0.250000
D55	AQUIFER-1	46	10.000000	0.001000	1.000000	0.000000	1.000000	0.000000	0.000000	1.000000	0.000000	2.000000	0.250000
D60	AQUIFER-1	200	10.000000	0.001000	1.000000	0.000000	1.000000	0.000000	0.000000	1.000000	0.000000	2.000000	0.250000
D65	AQUIFER-1	209	10.000000	0.001000	1.000000	0.000000	1.000000	0.000000	0.000000	1.000000	0.000000	2.000000	0.250000
D70	AQUIFER-1	105	10.000000	0.001000	1.000000	0.000000	1.000000	0.000000	0.000000	1.000000	0.000000	2.000000	0.250000

[GWF]

[SNOWPACKS]
BORLÄNGE	PLOWABLE	0.000000	0.000000	0.000000	0.000000	0.000000	0.000000	0.000000
BORLÄNGE	IMPERVIOUS	0.020000	0.030000	0.000000	0.100000	0.000000	0.000000	5.000000
BORLÄNGE	PERVIOUS	0.020000	0.030000	0.000000	0.100000	0.000000	0.000000	5.000000
BORLÄNGE	REMOVAL	5.000000	0.000000	0.000000	0.000000	1.000000	0.000000

[LID_CONTROLS]
TRENCH	IT
TRENCH	SURFACE	3.937008	0.100000	0.013000	1.000000	0.000000
TRENCH	STORAGE	39.370079	0.330000	30.000000	0.000000
TRENCH	DRAIN	1.000000	1.000000	1.000000	1.000000	0.000000	0.000000

BIOCELL	BC
BIOCELL	SURFACE	3.937008	0.100000	0.013000	1.000000	0.000000
BIOCELL	SOIL	39.370079	0.330000	0.250000	0.150000	20.000000	1.000000	5.000000
BIOCELL	STORAGE	39.370079	0.330000	30.000000	0.000000
BIOCELL	DRAIN	1.000000	1.000000	6.000000	1.000000	0.000000	0.000000

RAINB	RB
RAINB	STORAGE	48.000000	0.250000	30.000000	0.000000
RAINB	DRAIN	1.000000	1.000000	6.000000	1.000000	0.000000	0.000000

VEGSWALE	VS
VEGSWALE	SURFACE	3.937008	0.330000	0.013000	1.000000	1.000000

GREENROOF	GR
GREENROOF	SURFACE	39.370079	0.100000	0.013000	1.000000	0.000000
GREENROOF	SOIL	19.685039	0.400000	0.300000	0.120000	30.000000	5.000000	5.000000
GREENROOF	DRAINMAT	5.000000	0.500000	0.020000

PAVEMENT	PP
PAVEMENT	SURFACE	8.000000	0.330000	0.013000	1.000000	1.000000
PAVEMENT	STORAGE	39.370079	0.330000	70.000000	0.000000
PAVEMENT	PAVEMENT	0.393701	0.150000	0.150000	80.000000	0.000000	0.000000	0.000000
PAVEMENT	DRAIN	0.000000	1.000000	0.001550	1.000000	0.000000	0.000000

RG	RG
RG	SURFACE	3.000000	0.100000	0.100000	1.000000	5.000000
RG	SOIL	3.000000	0.500000	0.200000	0.100000	0.500000	10.000000	3.500000
RG	STORAGE	0.000000	0.750000	1.000000	0.000000


[LID_USAGE]
C10	TRENCH	1	21034.858680	55.000000	0.000000	5.000000	1	*	*	5.000000
C10	BIOCELL	1	21034.858680	55.000000	0.000000	5.000000	1	*	*	5.000000
C10	RAINB	1	21034.858680	55.000000	0.000000	5.000000	1	*	*	5.000000
C10	VEGSWALE	1	21034.858680	55.000000	0.000000	5.000000	1	*	*	5.000000
C10	GREENROOF	1	21034.858680	55.000000	0.000000	5.000000	1	*	*	5.000000
C10	PAVEMENT	1	21034.858680	55.000000	0.000000	5.000000	1	*	*	5.000000
C13	TRENCH	1	3927.313242	55.000000	0.000000	5.000000	1	*	*	5.000000
C13	BIOCELL	1	3927.313242	55.000000	0.000000	5.000000	1	*	*	5.000000
C13	RAINB	1	3927.313242	55.000000	0.000000	5.000000	1	*	*	5.000000
C13	VEGSWALE	1	3927.313242	55.000000	0.000000	5.000000	1	*	*	5.000000
C13	GREENROOF	1	3927.313242	55.000000	0.000000	5.000000	1	*	*	5.000000
C13	PAVEMENT	1	3927.313242	55.000000	0.000000	5.000000	1	*	*	5.000000
C15	TRENCH	1	21511.591461	55.000000	0.000000	5.000000	1	*	*	5.000000
C15	BIOCELL	1	21511.591461	55.000000	0.000000	5.000000	1	*	*	5.000000
C15	RAINB	1	21511.591461	55.000000	0.000000	5.000000	1	*	*	5.000000
C15	VEGSWALE	1	21511.591461	55.000000	0.000000	5.000000	1	*	*	5.000000
C15	GREENROOF	1	21511.591461	55.000000	0.000000	5.000000	1	*	*	5.000000
C15	PAVEMENT	1	21511.591461	55.000000	0.000000	5.000000	1	*	*	5.000000
C20	TRENCH	1	16569.684773	55.000000	0.000000	5.000000	1	*	*	5.000000
C20	BIOCELL	1	16569.684773	55.000000	0.000000	5.000000	1	*	*	5.000000
C20	RAINB	1	16569.684773	55.000000	0.000000	5.000000	1	*	*	5.000000
C20	VEGSWALE	1	16569.684773	55.000000	0.000000	5.000000	1	*	*	5.000000
C20	GREENROOF	1	16569.684773	55.000000	0.000000	5.000000	1	*	*	5.000000
C20	PAVEMENT	1	16569.684773	55.000000	0.000000	5.000000	1	*	*	5.000000
C25	TRENCH	1	32381.355732	55.000000	0.000000	5.000000	1	*	*	5.000000
C25	BIOCELL	1	32381.355732	55.000000	0.000000	5.000000	1	*	*	5.000000
C25	RAINB	1	32381.355732	55.000000	0.000000	5.000000	1	*	*	5.000000
C25	VEGSWALE	1	32381.355732	55.000000	0.000000	5.000000	1	*	*	5.000000
C25	GREENROOF	1	32381.355732	55.000000	0.000000	5.000000	1	*	*	5.000000
C25	PAVEMENT	1	32381.355732	55.000000	0.000000	5.000000	1	*	*	5.000000
C30	TRENCH	1	14630.140842	55.000000	0.000000	5.000000	1	*	*	5.000000
C30	BIOCELL	1	14630.140842	55.000000	0.000000	5.000000	1	*	*	5.000000
C30	RAINB	1	14630.140842	55.000000	0.000000	5.000000	1	*	*	5.000000
C30	VEGSWALE	1	14630.140842	55.000000	0.000000	5.000000	1	*	*	5.000000
C30	GREENROOF	1	14630.140842	55.000000	0.000000	5.000000	1	*	*	5.000000
C30	PAVEMENT	1	14630.140842	55.000000	0.000000	5.000000	1	*	*	5.000000
C33	TRENCH	1	15524.534473	55.000000	0.000000	5.000000	1	*	*	5.000000
C33	BIOCELL	1	15524.534473	55.000000	0.000000	5.000000	1	*	*	5.000000
C33	RAINB	1	15524.534473	55.000000	0.000000	5.000000	1	*	*	5.000000
C33	VEGSWALE	1	15524.534473	55.000000	0.000000	5.000000	1	*	*	5.000000
C33	GREENROOF	1	15524.534473	55.000000	0.000000	5.000000	1	*	*	5.000000
C35	PAVEMENT	1	29324.165903	55.000000	0.000000	5.000000	1	*	*	5.000000
C35	TRENCH	1	29324.165903	55.000000	0.000000	5.000000	1	*	*	5.000000
C35	BIOCELL	1	29324.165903	55.000000	0.000000	5.000000	1	*	*	5.000000
C35	RAINB	1	29324.165903	55.000000	0.000000	5.000000	1	*	*	5.000000
C35	VEGSWALE	1	29324.165903	55.000000	0.000000	5.000000	1	*	*	5.000000
C45	GREENROOF	1	23284.944715	55.000000	0.000000	5.000000	1	*	*	5.000000
C45	PAVEMENT	1	23284.944715	55.000000	0.000000	5.000000	1	*	*	5.000000
C45	TRENCH	1	23284.944715	55.000000	0.000000	5.000000	1	*	*	5.000000
C45	BIOCELL	1	23284.944715	55.000000	0.000000	5.000000	1	*	*	5.000000
C45	RAINB	1	23284.944715	55.000000	0.000000	5.000000	1	*	*	5.000000
C50	VEGSWALE	1	41573.914888	55.000000	0.000000	5.000000	1	*	*	5.000000
C50	GREENROOF	1	41573.914888	55.000000	0.000000	5.000000	1	*	*	5.000000
C50	PAVEMENT	1	41573.914888	55.000000	0.000000	5.000000	1	*	*	5.000000
C50	TRENCH	1	41573.914888	55.000000	0.000000	5.000000	1	*	*	5.000000
C50	BIOCELL	1	41573.914888	55.000000	0.000000	5.000000	1	*	*	5.000000
C55	RAINB	1	14058.114890	55.000000	0.000000	5.000000	1	*	*	5.000000
C55	VEGSWALE	1	14058.114890	55.000000	0.000000	5.000000	1	*	*	5.000000
C55	GREENROOF	1	14058.114890	55.000000	0.000000	5.000000	1	*	*	5.000000
C55	PAVEMENT	1	14058.114890	55.000000	0.000000	5.000000	1	*	*	5.000000
C55	TRENCH	1	14058.114890	55.000000	0.000000	5.000000	1	*	*	5.000000
C57	BIOCELL	1	27902.243860	55.000000	0.000000	5.000000	1	*	*	5.000000
C57	RAINB	1	27902.243860	55.000000	0.000000	5.000000	1	*	*	5.000000
C57	VEGSWALE	1	27902.243860	55.000000	0.000000	5.000000	1	*	*	5.000000
C57	GREENROOF	1	27902.243860	55.000000	0.000000	5.000000	1	*	*	5.000000
C57	PAVEMENT	1	27902.243860	55.000000	0.000000	5.000000	1	*	*	5.000000
C60	TRENCH	1	33339.770654	55.000000	0.000000	5.000000	1	*	*	5.000000
C60	BIOCELL	1	33339.770654	55.000000	0.000000	5.000000	1	*	*	5.000000
C60	RAINB	1	33339.770654	55.000000	0.000000	5.000000	1	*	*	5.000000
C60	VEGSWALE	1	33339.770654	55.000000	0.000000	5.000000	1	*	*	5.000000
C60	GREENROOF	1	33339.770654	55.000000	0.000000	5.000000	1	*	*	5.000000
C65	PAVEMENT	1	13605.094027	55.000000	0.000000	5.000000	1	*	*	5.000000
C65	TRENCH	1	13605.094027	55.000000	0.000000	5.000000	1	*	*	5.000000
C65	BIOCELL	1	13605.094027	55.000000	0.000000	5.000000	1	*	*	5.000000
C65	RAINB	1	13605.094027	55.000000	0.000000	5.000000	1	*	*	5.000000
C65	VEGSWALE	1	13605.094027	55.000000	0.000000	5.000000	1	*	*	5.000000
D10	GREENROOF	1	21318.435618	55.000000	0.000000	5.000000	1	*	*	5.000000
D10	PAVEMENT	1	21318.435618	55.000000	0.000000	5.000000	1	*	*	5.000000
D10	TRENCH	1	21318.435618	55.000000	0.000000	5.000000	1	*	*	5.000000
D10	BIOCELL	1	21318.435618	55.000000	0.000000	5.000000	1	*	*	5.000000
D10	RAINB	1	21318.435618	55.000000	0.000000	5.000000	1	*	*	5.000000
D15	VEGSWALE	1	13050.316707	55.000000	0.000000	5.000000	1	*	*	5.000000
D15	GREENROOF	1	13050.316707	55.000000	0.000000	5.000000	1	*	*	5.000000
D15	PAVEMENT	1	13050.316707	55.000000	0.000000	5.000000	1	*	*	5.000000
D15	TRENCH	1	13050.316707	55.000000	0.000000	5.000000	1	*	*	5.000000
D15	BIOCELL	1	13050.316707	55.000000	0.000000	5.000000	1	*	*	5.000000
D20	RAINB	1	15036.149913	55.000000	0.000000	5.000000	1	*	*	5.000000
D20	VEGSWALE	1	15036.149913	55.000000	0.000000	5.000000	1	*	*	5.000000
D20	GREENROOF	1	15036.149913	55.000000	0.000000	5.000000	1	*	*	5.000000
D20	PAVEMENT	1	15036.149913	55.000000	0.000000	5.000000	1	*	*	5.000000
D20	TRENCH	1	15036.149913	55.000000	0.000000	5.000000	1	*	*	5.000000
D21	BIOCELL	1	32577.797617	55.000000	0.000000	5.000000	1	*	*	5.000000
D21	RAINB	1	32577.797617	55.000000	0.000000	5.000000	1	*	*	5.000000
D21	VEGSWALE	1	32577.797617	55.000000	0.000000	5.000000	1	*	*	5.000000
D21	GREENROOF	1	32577.797617	55.000000	0.000000	5.000000	1	*	*	5.000000
D21	PAVEMENT	1	32577.797617	55.000000	0.000000	5.000000	1	*	*	5.000000
D22	TRENCH	1	30385.606155	55.000000	0.000000	5.000000	1	*	*	5.000000
D22	BIOCELL	1	30385.606155	55.000000	0.000000	5.000000	1	*	*	5.000000
D22	RAINB	1	30385.606155	55.000000	0.000000	5.000000	1	*	*	5.000000
D22	VEGSWALE	1	30385.606155	55.000000	0.000000	5.000000	1	*	*	5.000000
D22	GREENROOF	1	30385.606155	55.000000	0.000000	5.000000	1	*	*	5.000000
D25	PAVEMENT	1	12393.198443	55.000000	0.000000	5.000000	1	*	*	5.000000
D25	TRENCH	1	12393.198443	55.000000	0.000000	5.000000	1	*	*	5.000000
D25	BIOCELL	1	12393.198443	55.000000	0.000000	5.000000	1	*	*	5.000000
D25	RAINB	1	12393.198443	55.000000	0.000000	5.000000	1	*	*	5.000000
D25	VEGSWALE	1	12393.198443	55.000000	0.000000	5.000000	1	*	*	5.000000
D30	GREENROOF	1	31265.029863	55.000000	0.000000	5.000000	1	*	*	5.000000
D30	PAVEMENT	1	31265.029863	55.000000	0.000000	5.000000	1	*	*	5.000000
D30	TRENCH	1	31265.029863	55.000000	0.000000	5.000000	1	*	*	5.000000
D30	BIOCELL	1	31265.029863	55.000000	0.000000	5.000000	1	*	*	5.000000
D30	RAINB	1	31265.029863	55.000000	0.000000	5.000000	1	*	*	5.000000
D32	VEGSWALE	1	7216.718219	55.000000	0.000000	5.000000	1	*	*	5.000000
D32	GREENROOF	1	7216.718219	55.000000	0.000000	5.000000	1	*	*	5.000000
D32	PAVEMENT	1	7216.718219	55.000000	0.000000	5.000000	1	*	*	5.000000
D32	TRENCH	1	7216.718219	55.000000	0.000000	5.000000	1	*	*	5.000000
D32	BIOCELL	1	7216.718219	55.000000	0.000000	5.000000	1	*	*	5.000000
D35	RAINB	1	17733.714795	55.000000	0.000000	5.000000	1	*	*	5.000000
D35	VEGSWALE	1	17733.714795	55.000000	0.000000	5.000000	1	*	*	5.000000
D35	GREENROOF	1	17733.714795	55.000000	0.000000	5.000000	1	*	*	5.000000
D35	PAVEMENT	1	17733.714795	55.000000	0.000000	5.000000	1	*	*	5.000000
D35	TRENCH	1	17733.714795	55.000000	0.000000	5.000000	1	*	*	5.000000
D40	BIOCELL	1	22224.623315	55.000000	0.000000	5.000000	1	*	*	5.000000
D40	RAINB	1	22224.623315	55.000000	0.000000	5.000000	1	*	*	5.000000
D40	VEGSWALE	1	22224.623315	55.000000	0.000000	5.000000	1	*	*	5.000000
D40	GREENROOF	1	22224.623315	55.000000	0.000000	5.000000	1	*	*	5.000000
D40	PAVEMENT	1	22224.623315	55.000000	0.000000	5.000000	1	*	*	5.000000
D45	TRENCH	1	34846.454062	55.000000	0.000000	5.000000	1	*	*	5.000000
D45	BIOCELL	1	34846.454062	55.000000	0.000000	5.000000	1	*	*	5.000000
D45	RAINB	1	34846.454062	55.000000	0.000000	5.000000	1	*	*	5.000000
D45	VEGSWALE	1	34846.454062	55.000000	0.000000	5.000000	1	*	*	5.000000
D45	GREENROOF	1	34846.454062	55.000000	0.000000	5.000000	1	*	*	5.000000
D50	PAVEMENT	1	18279.966066	55.000000	0.000000	5.000000	1	*	*	5.000000
D50	TRENCH	1	18279.966066	55.000000	0.000000	5.000000	1	*	*	5.000000
D50	BIOCELL	1	18279.966066	55.000000	0.000000	5.000000	1	*	*	5.000000
D50	RAINB	1	18279.966066	55.000000	0.000000	5.000000	1	*	*	5.000000
D50	VEGSWALE	1	18279.966066	55.000000	0.000000	5.000000	1	*	*	5.000000
D55	GREENROOF	1	15285.196889	55.000000	0.000000	5.000000	1	*	*	5.000000
D55	PAVEMENT	1	15285.196889	55.000000	0.000000	5.000000	1	*	*	5.000000
D55	TRENCH	1	15285.196889	55.000000	0.000000	5.000000	1	*	*	5.000000
D55	BIOCELL	1	15285.196889	55.000000	0.000000	5.000000	1	*	*	5.000000
D55	RAINB	1	15285.196889	55.000000	0.000000	5.000000	1	*	*	5.000000
D60	VEGSWALE	1	27545.781686	55.000000	0.000000	5.000000	1	*	*	5.000000
D60	GREENROOF	1	27545.781686	55.000000	0.000000	5.000000	1	*	*	5.000000
D60	PAVEMENT	1	27545.781686	55.000000	0.000000	5.000000	1	*	*	5.000000
D60	TRENCH	1	27545.781686	55.000000	0.000000	5.000000	1	*	*	5.000000
D60	BIOCELL	1	27545.781686	55.000000	0.000000	5.000000	1	*	*	5.000000
D65	RAINB	1	18827.941313	55.000000	0.000000	5.000000	1	*	*	5.000000
D65	VEGSWALE	1	18827.941313	55.000000	0.000000	5.000000	1	*	*	5.000000
D65	GREENROOF	1	18827.941313	55.000000	0.000000	5.000000	1	*	*	5.000000
D65	PAVEMENT	1	18827.941313	55.000000	0.000000	5.000000	1	*	*	5.000000
D65	TRENCH	1	18827.941313	55.000000	0.000000	5.000000	1	*	*	5.000000
D70	BIOCELL	1	15866.116961	55.000000	0.000000	5.000000	1	*	*	5.000000
D70	RAINB	1	15866.116961	55.000000	0.000000	5.000000	1	*	*	5.000000
D70	VEGSWALE	1	15866.116961	55.000000	0.000000	5.000000	1	*	*	5.000000
D70	GREENROOF	1	15866.116961	55.000000	0.000000	5.000000	1	*	*	5.000000
D70	PAVEMENT	1	15866.116961	55.000000	0.000000	5.000000	1	*	*	5.000000
C10	RG	1	21034.858680	55.000000	0.000000	5.000000	1	*	*	5.000000
C13	RG	1	3927.313242	55.000000	0.000000	5.000000	1	*	*	5.000000
C15	RG	1	21511.591461	55.000000	0.000000	5.000000	1	*	*	5.000000
C20	RG	1	16569.684773	55.000000	0.000000	5.000000	1	*	*	5.000000
C25	RG	1	32381.355732	55.000000	0.000000	5.000000	1	*	*	5.000000
C30	RG	1	14630.140842	55.000000	0.000000	5.000000	1	*	*	5.000000
C33	RG	1	15524.534473	55.000000	0.000000	5.000000	1	*	*	5.000000
C35	RG	1	29324.165903	55.000000	0.000000	5.000000	1	*	*	5.000000
C45	RG	1	23284.944715	55.000000	0.000000	5.000000	1	*	*	5.000000
C50	RG	1	41573.914888	55.000000	0.000000	5.000000	1	*	*	5.000000
C55	RG	1	14058.114890	55.000000	0.000000	5.000000	1	*	*	5.000000
C57	RG	1	27902.243860	55.000000	0.000000	5.000000	1	*	*	5.000000
C60	RG	1	33339.770654	55.000000	0.000000	5.000000	1	*	*	5.000000
C65	RG	1	13605.094027	55.000000	0.000000	5.000000	1	*	*	5.000000
D10	RG	1	21318.435618	55.000000	0.000000	5.000000	1	*	*	5.000000
D15	RG	1	13050.316707	55.000000	0.000000	5.000000	1	*	*	5.000000
D20	RG	1	15036.149913	55.000000	0.000000	5.000000	1	*	*	5.000000
D21	RG	1	32577.797617	55.000000	0.000000	5.000000	1	*	*	5.000000
D22	RG	1	30385.606155	55.000000	0.000000	5.000000	1	*	*	5.000000
D25	RG	1	12393.198443	55.000000	0.000000	5.000000	1	*	*	5.000000
D30	RG	1	31265.029863	55.000000	0.000000	5.000000	1	*	*	5.000000
D32	RG	1	7216.718219	55.000000	0.000000	5.000000	1	*	*	5.000000
D35	RG	1	17733.714795	55.000000	0.000000	5.000000	1	*	*	5.000000
D40	RG	1	22224.623315	55.000000	0.000000	5.000000	1	*	*	5.000000
D45	RG	1	34846.454062	55.000000	0.000000	5.000000	1	*	*	5.000000
D50	RG	1	18279.966066	55.000000	0.000000	5.000000	1	*	*	5.000000
D55	RG	1	15285.196889	55.000000	0.000000	5.000000	1	*	*	5.000000
D60	RG	1	27545.781686	55.000000	0.000000	5.000000	1	*	*	5.000000
D65	RG	1	18827.941313	55.000000	0.000000	5.000000	1	*	*	5.000000
D70	RG	1	15866.116961	55.000000	0.000000	5.000000	1	*	*	5.000000

[JUNCTIONS]
1001	708.946023	4.399584	0.000000	100.000000	0.000000
105	678.785022	4.769501	0.000000	0.000000	0.000000
13	689.376022	5.514259	0.000000	0.000000	0.000000
136	665.130021	11.169918	0.000000	0.000000	0.000000
137	690.487022	9.689719	0.000000	0.000000	0.000000
140	666.277021	8.076071	0.000000	0.000000	0.000000
144	666.356021	8.249979	0.000000	0.000000	0.000000
147	686.537022	9.135874	0.000000	0.000000	0.000000
15	687.867022	5.400162	0.000000	0.000000	0.000000
150	681.791022	7.344574	0.000000	0.000000	0.000000
158	670.066021	7.000112	0.000000	0.000000	0.000000
166	670.074021	8.429832	0.000000	0.000000	0.000000
173	670.024021	8.978697	0.000000	0.000000	0.000000
179	668.796021	5.009548	0.000000	0.000000	0.000000
18	694.541022	5.712314	0.000000	0.000000	0.000000
183	670.951021	10.048979	0.000000	0.000000	0.000000
19	671.874022	10.430311	0.000000	0.000000	0.000000
200	689.114022	6.000137	0.000000	0.000000	0.000000
201	693.878022	8.773969	0.000000	0.000000	0.000000
205	664.771021	13.169840	0.000000	0.000000	0.000000
209	671.053021	12.199730	0.000000	0.000000	0.000000
232	671.409021	6.482227	0.000000	0.000000	0.000000
244	678.534022	5.079524	0.000000	0.000000	0.000000
25	673.849022	2.888408	0.000000	0.000000	0.000000
255	668.954021	4.209979	0.000000	0.000000	0.000000
257	670.530021	15.520276	0.000000	0.000000	0.000000
26	665.488021	2.999900	0.000000	0.000000	0.000000
260	672.441022	4.999673	0.000000	0.000000	0.000000
261	672.623022	4.999546	0.000000	0.000000	0.000000
267	696.753022	4.107361	0.000000	0.000000	0.000000
269	667.148021	13.730458	0.000000	0.000000	0.000000
276	680.457022	2.000602	0.000000	0.000000	0.000000
281	672.474022	6.551774	0.000000	0.000000	0.000000
285	681.459022	4.235688	0.000000	0.000000	0.000000
297	674.041022	8.015457	0.000000	0.000000	0.000000
304	674.815022	7.331168	0.000000	0.000000	0.000000
306	679.947022	5.950638	0.000000	0.000000	0.000000
31	671.658021	2.690215	0.000000	0.000000	0.000000
32	697.855022	5.150351	0.000000	0.000000	0.000000
323	678.639022	16.649701	0.000000	0.000000	0.000000
325	677.120022	6.254131	0.000000	0.000000	0.000000
33	693.901022	5.000349	0.000000	0.000000	0.000000
333	676.837022	8.223906	0.000000	0.000000	0.000000
348	682.669022	4.989957	0.000000	0.000000	0.000000
351	675.630022	11.879521	0.000000	0.000000	0.000000
371	697.059022	6.944832	0.000000	0.000000	0.000000
384	681.107022	10.194090	0.000000	0.000000	0.000000
387	693.949022	13.849806	0.000000	0.000000	0.000000
393	688.332022	5.079988	0.000000	0.000000	0.000000
4	691.299022	6.869898	0.000000	0.000000	0.000000
407	708.361023	5.080053	0.000000	0.000000	0.000000
46	687.267022	15.053309	0.000000	0.000000	0.000000
56	685.231022	7.279932	0.000000	0.000000	0.000000
64	688.452022	13.819749	0.000000	0.000000	0.000000
7	674.506022	6.579561	0.000000	0.000000	0.000000
74	665.975021	3.000299	0.000000	0.000000	0.000000
76	688.812022	13.459749	0.000000	0.000000	0.000000
77	667.452021	3.019791	0.000000	0.000000	0.000000
879	697.404022	5.083864	0.000000	0.000000	0.000000
882	692.479022	8.260462	0.000000	0.000000	0.000000
893	702.683022	4.999661	0.000000	0.000000	0.000000
894	705.270023	2.990023	0.000000	0.000000	0.000000
95	694.176022	3.100447	0.000000	0.000000	0.000000