[TITLE]
;;Project Title/Notes

[OPTIONS]
;;Option             Value
FLOW_UNITS           CFS
INFILTRATION         HORTON
FLOW_ROUTING         DYNWAVE
LINK_OFFSETS         DEPTH
MIN_SLOPE            0
ALLOW_PONDING        YES
SKIP_STEADY_STATE    NO

IGNORE_GROUNDWATER   YES
IGNORE_QUALITY       YES
START_DATE           02/14/2017
START_TIME           00:00:00
REPORT_START_DATE    02/14/2017
REPORT_START_TIME    00:00:00
END_DATE             02/18/2017
END_TIME             00:00:00
SWEEP_START          01/01
SWEEP_END            01/01
DRY_DAYS             5.000000
REPORT_STEP          00:05:00
WET_STEP             00:05:00
DRY_STEP             01:00:00
ROUTING_STEP         0:00:30 

INERTIAL_DAMPING     NONE
NORMAL_FLOW_LIMITED  BOTH
FORCE_MAIN_EQUATION  H-W
VARIABLE_STEP        0.85
LENGTHENING_STEP     15
MIN_SURFAREA         12.557
MAX_TRIALS           6
HEAD_TOLERANCE       0.005000
SYS_FLOW_TOL         5
LAT_FLOW_TOL         5
MINIMUM_STEP         0
THREADS              1

[EVAPORATION]
;;Data Source    Parameters
;;-------------- ----------------
CONSTANT         0.100000
DRY_ONLY         NO

[TEMPERATURE]
;;Data Element     Values     
TIMESERIES         TWODAYTEMP
WINDSPEED MONTHLY  0.000000 0.000000 0.000000 0.000000 0.000000 0.000000 0.000000 0.000000 0.000000 0.000000 0.000000 0.000000
SNOWMELT           34.000000 0.500000 0.600000 0.000000 50.000000 0.000000
ADC IMPERVIOUS     1.000000 1.000000 1.000000 1.000000 1.000000 1.000000 1.000000 1.000000 1.000000 1.000000
ADC PERVIOUS       1.000000 1.000000 1.000000 1.000000 1.000000 1.000000 1.000000 1.000000 1.000000 1.000000

[RAINGAGES]
;;Name           Format    Interval SCF      Source    
;;-------------- --------- ------ ------ ----------
; New Raingage
RAINGAGE-1       INTENSITY 0.250000 1.000000 TIMESERIES TWODAY          

[SUBCATCHMENTS]
;;Name           Rain Gage        Outlet           Area     %Imperv  Width    %Slope   CurbLen  SnowPack        
;;-------------- ---------------- ---------------- -------- -------- -------- -------- -------- ----------------
SUB-380          RAINGAGE-1       N03-P079         38.465840 44.142527 2116.500000 0.762918 0.000000 SNOWDATA        
SUB-388          RAINGAGE-1       N02-009          20.991698 45.777889 1428.000000 0.746656 0.000000 SNOWDATA        
SUB-394          RAINGAGE-1       N02-002          78.920313 47.963602 2065.500000 0.741171 0.000000 SNOWDATA        
SUB-406          RAINGAGE-1       N07-077          57.365600 35.183902 3480.750000 0.773869 0.000000 SNOWDATA        
SUB-410          RAINGAGE-1       N05-046          65.986452 35.654006 2040.000000 0.748757 0.000000 SNOWDATA        
SUB-418          RAINGAGE-1       N06-044          22.339836 36.469228 1071.000000 0.772158 0.000000 SNOWDATA        
SUB-442          RAINGAGE-1       N06-048          14.075388 59.842045 1020.000000 0.768702 0.000000 SNOWDATA        
SUB-446          RAINGAGE-1       N05-036          34.690020 28.056759 1491.750000 0.740605 0.000000 SNOWDATA        
SUB-452          RAINGAGE-1       N06-010          83.476090 37.509925 2371.500000 0.753522 0.000000 SNOWDATA        
SUB-456          RAINGAGE-1       T05-044          2.613632 29.851054 382.500000 0.731117 0.000000 SNOWDATA        
SUB-458          RAINGAGE-1       N07-009          40.981332 56.253518 1823.250000 0.771345 0.000000 SNOWDATA        
SUB-466          RAINGAGE-1       N06-021A         46.136281 24.421389 2295.000000 0.755551 0.000000 SNOWDATA        
SUB-470          RAINGAGE-1       N05-051B         36.301588 36.114846 1772.250000 0.736828 0.000000 SNOWDATA        
SUB-492          RAINGAGE-1       N05-037A         24.628055 7.175516 1198.500000 0.730220 0.000000 SNOWDATA        
SUB-496          RAINGAGE-1       N05-004          19.839840 30.705168 1185.750000 0.729403 0.000000 SNOWDATA        
SUB-500          RAINGAGE-1       T05-052          54.400729 42.899952 2295.000000 0.761848 0.000000 SNOWDATA        
SUB-504          RAINGAGE-1       N08-093          19.493767 28.141288 1542.750000 0.698957 0.000000 SNOWDATA        
SUB-506          RAINGAGE-1       T05-034A         7.226227 9.353696 752.250000 0.721497 0.000000 SNOWDATA        
SUB-524          RAINGAGE-1       N09-063          24.307808 28.816418 1874.250000 0.707792 0.000000 SNOWDATA        
SUB-530          RAINGAGE-1       N08-036          3.300614 19.917297 573.750000 0.687272 0.000000 SNOWDATA        
SUB-532          RAINGAGE-1       T09-002          132.143358 25.586435 5571.750000 0.716357 0.000000 SNOWDATA        
SUB-536          RAINGAGE-1       N11-P032         27.055737 27.257751 1402.500000 0.727452 0.000000 SNOWDATA        
SUB-538          RAINGAGE-1       N05-013A         33.409031 28.439078 2065.500000 0.729765 0.000000 SNOWDATA        
SUB-548          RAINGAGE-1       JCT-32           1.905988 15.655416 675.750000 0.719345 0.000000 SNOWDATA        
SUB-550          RAINGAGE-1       N09-012A         19.292321 32.356158 1823.250000 0.709046 0.000000 SNOWDATA        
SUB-552          RAINGAGE-1       UPSTREAM_WW      5.898750 20.917676 867.000000 0.721214 0.000000 SNOWDATA        
SUB-556          RAINGAGE-1       N12-033          18.176620 30.459441 1224.000000 0.758118 0.000000 SNOWDATA        
SUB-558          RAINGAGE-1       N08-036A         34.504070 26.406571 2269.500000 0.691082 0.000000 SNOWDATA        
SUB-560          RAINGAGE-1       N10-043          29.302633 30.239095 2435.250000 0.731036 0.000000 SNOWDATA        
SUB-562          RAINGAGE-1       N11-017          55.418289 28.072567 2907.000000 0.736737 0.000000 SNOWDATA        
SUB-594          RAINGAGE-1       N10-036          25.444169 27.040572 1300.500000 0.715895 0.000000 SNOWDATA        
SUB-596          RAINGAGE-1       N14-P072         40.413151 24.807934 2001.750000 0.706327 0.000000 SNOWDATA        
SUB-602          RAINGAGE-1       N09-031          34.752004 28.595246 1491.750000 0.693085 0.000000 SNOWDATA        
SUB-604          RAINGAGE-1       N19-063          31.125977 29.797435 1759.500000 0.728767 0.000000 SNOWDATA        
SUB-606          RAINGAGE-1       N11-009A         24.591898 33.998836 1338.750000 0.737762 0.000000 SNOWDATA        
SUB-616          RAINGAGE-1       N13-010          59.287084 27.752864 1989.000000 0.691282 0.000000 SNOWDATA        
SUB-634          RAINGAGE-1       T05-034A         62.592863 19.587573 2907.000000 0.710665 0.000000 SNOWDATA        
SUB-638          RAINGAGE-1       N14-P074         22.820207 23.248048 1479.000000 0.690451 0.000000 SNOWDATA        
SUB-642          RAINGAGE-1       N14-015          92.845908 26.183915 2677.500000 0.706270 0.000000 SNOWDATA        
SUB-644          RAINGAGE-1       N14-032          15.242741 37.228359 943.500000 0.690098 0.000000 SNOWDATA        
SUB-666          RAINGAGE-1       T05-013          3.419415 23.917407 637.500000 0.685968 0.000000 SNOWDATA        
SUB-668          RAINGAGE-1       N13-004          42.603229 22.959459 1530.000000 0.691981 0.000000 SNOWDATA        
SUB-672          RAINGAGE-1       N10-015          112.995665 34.605428 3774.000000 0.710967 0.000000 SNOWDATA        
SUB-676          RAINGAGE-1       N19-018          58.429647 33.221404 2448.000000 0.725987 0.000000 SNOWDATA        
SUB-684          RAINGAGE-1       N26-025          43.099096 36.246741 2754.000000 0.728661 0.000000 SNOWDATA        
SUB-708          RAINGAGE-1       T05-009          22.288183 32.293566 1377.000000 0.685334 0.000000 SNOWDATA        
SUB-714          RAINGAGE-1       N17-P015         21.678680 42.160484 1338.750000 0.690080 0.000000 SNOWDATA        
SUB-732          RAINGAGE-1       N17-003          52.520567 19.835359 2231.250000 0.693916 0.000000 SNOWDATA        
SUB-738          RAINGAGE-1       N24-034          51.900733 33.819747 2052.750000 0.708598 0.000000 SNOWDATA        
SUB-744          RAINGAGE-1       N18-P079         18.724140 18.174803 1249.500000 0.700371 0.000000 SNOWDATA        
SUB-752          RAINGAGE-1       N27-003A         78.481264 34.427171 2894.250000 0.730694 0.000000 SNOWDATA        
SUB-764          RAINGAGE-1       N23-018          25.480326 25.090216 1606.500000 0.702280 0.000000 SNOWDATA        
SUB-774          RAINGAGE-1       N25-007          32.029901 29.861316 1746.750000 0.708241 0.000000 SNOWDATA        
SUB-778          RAINGAGE-1       N24-028          21.585705 30.494750 1173.000000 0.697828 0.000000 SNOWDATA        
SUB-784          RAINGAGE-1       N23-012          4.509289 22.418667 892.500000 0.691106 0.000000 SNOWDATA        
SUB-786          RAINGAGE-1       N18-003          47.494750 41.666451 1695.750000 0.694142 0.000000 SNOWDATA        
SUB-788          RAINGAGE-1       N25-027          18.837776 31.735375 1683.000000 0.726086 0.000000 SNOWDATA        
SUB-796          RAINGAGE-1       N24-003          26.854291 33.736966 1861.500000 0.696931 0.000000 SNOWDATA        
SUB-802          RAINGAGE-1       N23-P023         43.894549 37.868036 1861.500000 0.692975 0.000000 SNOWDATA        
SUB-804          RAINGAGE-1       N18-034E         32.980313 51.634320 1683.000000 0.698211 0.000000 SNOWDATA        
SUB-814          RAINGAGE-1       N25-013          39.855300 51.623300 2244.000000 0.715642 0.000000 SNOWDATA        
SUB-834          RAINGAGE-1       C06-037          18.321248 40.729331 1262.250000 0.713190 0.000000 SNOWDATA        
SUB-840          RAINGAGE-1       C02-058          40.459638 34.342057 2129.250000 0.700346 0.000000 SNOWDATA        
SUB-878          RAINGAGE-1       C06-044A         28.972056 25.525993 1657.500000 0.717942 0.000000 SNOWDATA        
SUB-880          RAINGAGE-1       C02-051          23.884255 25.013065 1440.750000 0.703094 0.000000 SNOWDATA        
SUB-886          RAINGAGE-1       JCT-64           79.033949 36.823377 3468.000000 0.698441 0.000000 SNOWDATA        
SUB-896          RAINGAGE-1       C05-033          1.854336 45.966509 357.000000 0.677648 0.000000 SNOWDATA        
SUB-898          RAINGAGE-1       JCT-70           12.479316 34.530287 1020.000000 0.692267 0.000000 SNOWDATA        
SUB-904          RAINGAGE-1       C05-041          70.201320 31.304533 2001.750000 0.692931 0.000000 SNOWDATA        
SUB-910          RAINGAGE-1       C06-028          20.299550 26.684027 1109.250000 0.713915 0.000000 SNOWDATA        
SUB-932          RAINGAGE-1       C05-016          5.532015 40.328960 816.000000 0.679488 0.000000 SNOWDATA        
SUB-938          RAINGAGE-1       T08-005          10.903906 27.511236 1020.000000 0.680711 0.000000 SNOWDATA        
SUB-946          RAINGAGE-1       C05-011          35.919357 27.799678 1950.750000 0.690815 0.000000 SNOWDATA        
SUB-954          RAINGAGE-1       C02-002          33.729278 29.416179 1874.250000 0.698424 0.000000 SNOWDATA        
SUB-988          RAINGAGE-1       C10-001A         81.224028 31.596029 2409.750000 0.683175 0.000000 SNOWDATA        

[SUBAREAS]
;;Subcatchment   N-Imperv   N-Perv     S-Imperv   S-Perv     PctZero    RouteTo    PctRouted 
;;-------------- ---------- ---------- ---------- ---------- ---------- ---------- ----------
SUB-380          0.080000   0.130000   0.050000   0.100000   20.000000  OUTLET    
SUB-388          0.080000   0.130000   0.050000   0.100000   20.000000  OUTLET    
SUB-394          0.080000   0.130000   0.050000   0.100000   20.000000  OUTLET    
SUB-406          0.080000   0.130000   0.050000   0.100000   20.000000  OUTLET    
SUB-410          0.080000   0.130000   0.050000   0.100000   20.000000  OUTLET    
SUB-418          0.080000   0.130000   0.050000   0.100000   20.000000  OUTLET    
SUB-442          0.080000   0.130000   0.050000   0.100000   20.000000  OUTLET    
SUB-446          0.080000   0.130000   0.050000   0.100000   20.000000  OUTLET    
SUB-452          0.080000   0.130000   0.050000   0.100000   20.000000  OUTLET    
SUB-456          0.080000   0.130000   0.050000   0.100000   20.000000  OUTLET    
SUB-458          0.080000   0.130000   0.050000   0.100000   20.000000  OUTLET    
SUB-466          0.080000   0.130000   0.050000   0.100000   20.000000  OUTLET    
SUB-470          0.080000   0.130000   0.050000   0.100000   20.000000  OUTLET    
SUB-492          0.080000   0.130000   0.050000   0.100000   20.000000  OUTLET    
SUB-496          0.080000   0.130000   0.050000   0.100000   20.000000  OUTLET    
SUB-500          0.080000   0.130000   0.050000   0.100000   20.000000  OUTLET    
SUB-504          0.080000   0.130000   0.050000   0.100000   20.000000  OUTLET    
SUB-506          0.080000   0.130000   0.050000   0.100000   20.000000  OUTLET    
SUB-524          0.080000   0.130000   0.050000   0.100000   20.000000  OUTLET    
SUB-530          0.080000   0.130000   0.050000   0.100000   20.000000  OUTLET    
SUB-532          0.080000   0.130000   0.050000   0.100000   20.000000  OUTLET    
SUB-536          0.080000   0.130000   0.050000   0.100000   20.000000  OUTLET    
SUB-538          0.080000   0.130000   0.050000   0.100000   20.000000  OUTLET    
SUB-548          0.080000   0.130000   0.050000   0.100000   20.000000  OUTLET    
SUB-550          0.080000   0.130000   0.050000   0.100000   20.000000  OUTLET    
SUB-552          0.080000   0.130000   0.050000   0.100000   20.000000  OUTLET    
SUB-556          0.080000   0.130000   0.050000   0.100000   20.000000  OUTLET    
SUB-558          0.080000   0.130000   0.050000   0.100000   20.000000  OUTLET    
SUB-560          0.080000   0.130000   0.050000   0.100000   20.000000  OUTLET    
SUB-562          0.080000   0.130000   0.050000   0.100000   20.000000  OUTLET    
SUB-594          0.080000   0.130000   0.050000   0.100000   20.000000  OUTLET    
SUB-596          0.080000   0.130000   0.050000   0.100000   20.000000  OUTLET    
SUB-602          0.080000   0.130000   0.050000   0.100000   20.000000  OUTLET    
SUB-604          0.080000   0.130000   0.050000   0.100000   20.000000  OUTLET    
SUB-606          0.080000   0.130000   0.050000   0.100000   20.000000  OUTLET    
SUB-616          0.080000   0.130000   0.050000   0.100000   20.000000  OUTLET    
SUB-634          0.080000   0.130000   0.050000   0.100000   20.000000  OUTLET    
SUB-638          0.080000   0.130000   0.050000   0.100000   20.000000  OUTLET    
SUB-642          0.080000   0.130000   0.050000   0.100000   20.000000  OUTLET    
SUB-644          0.080000   0.130000   0.050000   0.100000   20.000000  OUTLET    
SUB-666          0.080000   0.130000   0.050000   0.100000   20.000000  OUTLET    
SUB-668          0.080000   0.130000   0.050000   0.100000   20.000000  OUTLET    
SUB-672          0.080000   0.130000   0.050000   0.100000   20.000000  OUTLET    
SUB-676          0.080000   0.130000   0.050000   0.100000   20.000000  OUTLET    
SUB-684          0.080000   0.130000   0.050000   0.100000   20.000000  OUTLET    
SUB-708          0.080000   0.130000   0.050000   0.100000   20.000000  OUTLET    
SUB-714          0.080000   0.130000   0.050000   0.100000   20.000000  OUTLET    
SUB-732          0.080000   0.130000   0.050000   0.100000   20.000000  OUTLET    
SUB-738          0.080000   0.130000   0.050000   0.100000   20.000000  OUTLET    
SUB-744          0.080000   0.130000   0.050000   0.100000   20.000000  OUTLET    
SUB-752          0.080000   0.130000   0.050000   0.100000   20.000000  OUTLET    
SUB-764          0.080000   0.130000   0.050000   0.100000   20.000000  OUTLET    
SUB-774          0.080000   0.130000   0.050000   0.100000   20.000000  OUTLET    
SUB-778          0.080000   0.130000   0.050000   0.100000   20.000000  OUTLET    
SUB-784          0.080000   0.130000   0.050000   0.100000   20.000000  OUTLET    
SUB-786          0.080000   0.130000   0.050000   0.100000   20.000000  OUTLET    
SUB-788          0.080000   0.130000   0.050000   0.100000   20.000000  OUTLET    
SUB-796          0.080000   0.130000   0.050000   0.100000   20.000000  OUTLET    
SUB-802          0.080000   0.130000   0.050000   0.100000   20.000000  OUTLET    
SUB-804          0.080000   0.130000   0.050000   0.100000   20.000000  OUTLET    
SUB-814          0.080000   0.130000   0.050000   0.100000   20.000000  OUTLET    
SUB-834          0.080000   0.130000   0.050000   0.100000   20.000000  OUTLET    
SUB-840          0.080000   0.130000   0.050000   0.100000   20.000000  OUTLET    
SUB-878          0.080000   0.130000   0.050000   0.100000   20.000000  OUTLET    
SUB-880          0.080000   0.130000   0.050000   0.100000   20.000000  OUTLET    
SUB-886          0.080000   0.130000   0.050000   0.100000   20.000000  OUTLET    
SUB-896          0.080000   0.130000   0.050000   0.100000   20.000000  OUTLET    
SUB-898          0.080000   0.130000   0.050000   0.100000   20.000000  OUTLET    
SUB-904          0.080000   0.130000   0.050000   0.100000   20.000000  OUTLET    
SUB-910          0.080000   0.130000   0.050000   0.100000   20.000000  OUTLET    
SUB-932          0.080000   0.130000   0.050000   0.100000   20.000000  OUTLET    
SUB-938          0.080000   0.130000   0.050000   0.100000   20.000000  OUTLET    
SUB-946          0.080000   0.130000   0.050000   0.100000   20.000000  OUTLET    
SUB-954          0.080000   0.130000   0.050000   0.100000   20.000000  OUTLET    
SUB-988          0.080000   0.130000   0.050000   0.100000   20.000000  OUTLET    

[INFILTRATION]
;;Subcatchment   MaxRate    MinRate    Decay      DryTime    MaxInfil  
;;-------------- ---------- ---------- ---------- ---------- ----------
SUB-380          1.500000   0.100000   0.200000   3.000000   0.000000  
SUB-388          1.500000   0.100000   0.200000   3.000000   0.000000  
SUB-394          1.502710   0.100000   0.200000   3.000000   0.000000  
SUB-406          1.527620   0.100000   0.200000   3.000000   0.000000  
SUB-410          1.500000   0.100000   0.200000   3.000000   0.000000  
SUB-418          1.500000   0.100000   0.200000   3.000000   0.000000  
SUB-442          1.595027   0.100000   0.200000   3.000000   0.000000  
SUB-446          1.500000   0.100000   0.200000   3.000000   0.000000  
SUB-452          1.500000   0.100000   0.200000   3.000000   0.000000  
SUB-456          1.500000   0.100000   0.200000   3.000000   0.000000  
SUB-458          1.503901   0.100000   0.200000   3.000000   0.000000  
SUB-466          1.500000   0.100000   0.200000   3.000000   0.000000  
SUB-470          1.500000   0.100000   0.200000   3.000000   0.000000  
SUB-492          1.500000   0.100000   0.200000   3.000000   0.000000  
SUB-496          1.500000   0.100000   0.200000   3.000000   0.000000  
SUB-500          1.500000   0.100000   0.200000   3.000000   0.000000  
SUB-504          2.198460   0.100000   0.200000   3.000000   0.000000  
SUB-506          1.679354   0.100000   0.200000   3.000000   0.000000  
SUB-524          2.267378   0.100000   0.200000   3.000000   0.000000  
SUB-530          1.714552   0.100000   0.200000   3.000000   0.000000  
SUB-532          1.632840   0.100000   0.200000   3.000000   0.000000  
SUB-536          1.500000   0.100000   0.200000   3.000000   0.000000  
SUB-538          1.500000   0.100000   0.200000   3.000000   0.000000  
SUB-548          1.500000   0.100000   0.200000   3.000000   0.000000  
SUB-550          2.370419   0.100000   0.200000   3.000000   0.000000  
SUB-552          1.500000   0.100000   0.200000   3.000000   0.000000  
SUB-556          1.500000   0.100000   0.200000   3.000000   0.000000  
SUB-558          2.409894   0.100000   0.200000   3.000000   0.000000  
SUB-560          1.625298   0.100000   0.200000   3.000000   0.000000  
SUB-562          1.500000   0.100000   0.200000   3.000000   0.000000  
SUB-594          1.500000   0.100000   0.200000   3.000000   0.000000  
SUB-596          1.965095   0.100000   0.200000   3.000000   0.000000  
SUB-602          2.452958   0.100000   0.200000   3.000000   0.000000  
SUB-604          1.500000   0.100000   0.200000   3.000000   0.000000  
SUB-606          1.500000   0.100000   0.200000   3.000000   0.000000  
SUB-616          2.452016   0.100000   0.200000   3.000000   0.000000  
SUB-634          1.781084   0.100000   0.200000   3.000000   0.000000  
SUB-638          2.425817   0.100000   0.200000   3.000000   0.000000  
SUB-642          2.053149   0.100000   0.200000   3.000000   0.000000  
SUB-644          2.500000   0.100000   0.200000   3.000000   0.000000  
SUB-666          2.500000   0.100000   0.200000   3.000000   0.000000  
SUB-668          2.500000   0.100000   0.200000   3.000000   0.000000  
SUB-672          1.671305   0.100000   0.200000   3.000000   0.000000  
SUB-676          1.500000   0.100000   0.200000   3.000000   0.000000  
SUB-684          1.500000   0.100000   0.200000   3.000000   0.000000  
SUB-708          2.500000   0.100000   0.200000   3.000000   0.000000  
SUB-714          2.500000   0.100000   0.200000   3.000000   0.000000  
SUB-732          2.419987   0.100000   0.200000   3.000000   0.000000  
SUB-738          1.500000   0.100000   0.200000   3.000000   0.000000  
SUB-744          1.502501   0.100000   0.200000   3.000000   0.000000  
SUB-752          1.500000   0.100000   0.200000   3.000000   0.000000  
SUB-764          1.500000   0.100000   0.200000   3.000000   0.000000  
SUB-774          1.500000   0.100000   0.200000   3.000000   0.000000  
SUB-778          1.500000   0.100000   0.200000   3.000000   0.000000  
SUB-784          1.500000   0.100000   0.200000   3.000000   0.000000  
SUB-786          2.109775   0.100000   0.200000   3.000000   0.000000  
SUB-788          1.500000   0.100000   0.200000   3.000000   0.000000  
SUB-796          1.500000   0.100000   0.200000   3.000000   0.000000  
SUB-802          1.725694   0.100000   0.200000   3.000000   0.000000  
SUB-804          2.277466   0.100000   0.200000   3.000000   0.000000  
SUB-814          1.500000   0.100000   0.200000   3.000000   0.000000  
SUB-834          1.500000   0.100000   0.200000   3.000000   0.000000  
SUB-840          1.854536   0.100000   0.200000   3.000000   0.000000  
SUB-878          1.500000   0.100000   0.200000   3.000000   0.000000  
SUB-880          1.507511   0.100000   0.200000   3.000000   0.000000  
SUB-886          1.565440   0.100000   0.200000   3.000000   0.000000  
SUB-896          1.500000   0.100000   0.200000   3.000000   0.000000  
SUB-898          1.500000   0.100000   0.200000   3.000000   0.000000  
SUB-904          1.500000   0.100000   0.200000   3.000000   0.000000  
SUB-910          1.500000   0.100000   0.200000   3.000000   0.000000  
SUB-932          1.500000   0.100000   0.200000   3.000000   0.000000  
SUB-938          1.626472   0.100000   0.200000   3.000000   0.000000  
SUB-946          1.657250   0.100000   0.200000   3.000000   0.000000  
SUB-954          1.642606   0.100000   0.200000   3.000000   0.000000  
SUB-988          1.786482   0.100000   0.200000   3.000000   0.000000  

[SNOWPACKS]
;;Name           Surface    Parameters
;;-------------- ---------- ----------
SNOWDATA         PLOWABLE   0.003000   0.007000   33.000000  0.100000   0.000000   0.000000   0.000000  
SNOWDATA         IMPERVIOUS 0.003000   0.007000   33.000000  0.100000   1.000000   0.000000   9.000000  
SNOWDATA         PERVIOUS   0.003000   0.007000   33.000000  0.100000   1.000000   0.000000   9.000000  
SNOWDATA         REMOVAL    0.000000   0.000000   0.000000   0.000000   0.000000   0.000000   

[JUNCTIONS]
;;Name           Elevation  MaxDepth   InitDepth  SurDepth   Aponded   
;;-------------- ---------- ---------- ---------- ---------- ----------
C01-P102         675.026000 6.666000   0.000000   0.000000   0.000000  
C01-P103         675.022000 7.936000   0.000000   0.000000   0.000000  
C01-P104         675.021000 13.757000  0.000000   0.000000   0.000000  
C01-P108         675.024000 4.698000   0.000000   0.000000   0.000000  
C01-P109         669.000000 11.401000  0.000000   0.000000   0.000000  
C01-P110         664.500000 14.996000  0.000000   0.000000   0.000000  
C02-002          680.668000 12.265000  0.000000   0.000000   0.000000  
C02-003          686.367000 9.588000   0.000000   0.000000   0.000000  
C02-004          686.352000 11.615000  0.000000   0.000000   0.000000  
C02-005          686.376000 11.846000  0.000000   0.000000   0.000000  
C02-008          688.517000 11.812000  0.000000   0.000000   0.000000  
C02-008B         688.929000 15.663000  0.000000   0.000000   0.000000  
C02-009          688.517000 10.279000  0.000000   0.000000   0.000000  
C02-017          688.603000 15.102000  0.000000   0.000000   0.000000  
C02-018B         694.136000 8.272000   0.000000   0.000000   0.000000  
C02-032          686.813000 14.977000  0.000000   0.000000   0.000000  
C02-033          688.111000 12.079000  0.000000   0.000000   0.000000  
C02-035          690.325000 14.385000  0.000000   0.000000   0.000000  
C02-036          694.221000 11.835000  0.000000   0.000000   0.000000  
C02-037          694.240000 12.300000  0.000000   0.000000   0.000000  
C02-041          694.241000 9.324000   0.000000   0.000000   0.000000  
C02-042          690.527000 13.595000  0.000000   0.000000   0.000000  
C02-044          694.152000 10.391000  0.000000   0.000000   0.000000  
C02-047          694.124000 11.950000  0.000000   0.000000   0.000000  
C02-048          694.122000 11.903000  0.000000   0.000000   0.000000  
C02-049          694.134000 9.675000   0.000000   0.000000   0.000000  
C02-049B         694.130000 8.312000   0.000000   0.000000   0.000000  
C02-050          694.128000 8.314000   0.000000   0.000000   0.000000  
C02-051          690.727000 12.229000  0.000000   0.000000   0.000000  
C02-052          691.027000 12.887000  0.000000   0.000000   0.000000  
C02-054          694.116000 9.358000   0.000000   0.000000   0.000000  
C02-055          694.121000 8.484000   0.000000   0.000000   0.000000  
C02-056          694.116000 9.441000   0.000000   0.000000   0.000000  
C02-057          691.328000 12.592000  0.000000   0.000000   0.000000  
C02-058          692.122000 10.681000  0.000000   0.000000   0.000000  
C05-011          670.801000 11.009000  0.000000   0.000000   0.000000  
C05-014          666.675000 11.753000  0.000000   0.000000   0.000000  
C05-014B         669.444000 11.932000  0.000000   0.000000   0.000000  
C05-016          669.755000 13.969000  0.000000   0.000000   0.000000  
C05-022          679.790000 12.659000  0.000000   0.000000   0.000000  
C05-025A         685.151000 14.629000  0.000000   0.000000   0.000000  
C05-025B         688.319000 13.471000  0.000000   0.000000   0.000000  
C05-026          686.245000 14.307000  0.000000   0.000000   0.000000  
C05-027          686.245000 13.036000  0.000000   0.000000   0.000000  
C05-031A         693.300000 12.815000  0.000000   0.000000   0.000000  
C05-031B         694.126000 13.576000  0.000000   0.000000   0.000000  
C05-032          693.862000 12.679000  0.000000   0.000000   0.000000  
C05-033          668.757000 9.267000   0.000000   0.000000   0.000000  
C05-034          671.865000 9.849000   0.000000   0.000000   0.000000  
C05-037          675.582000 15.283000  0.000000   0.000000   0.000000  
C05-038          669.945000 8.619000   0.000000   0.000000   0.000000  
C05-039          675.581000 13.201000  0.000000   0.000000   0.000000  
C05-041          669.945000 6.553000   0.000000   0.000000   0.000000  
C05-043          677.594000 9.692000   0.000000   0.000000   0.000000  
C05-045          677.593000 15.583000  0.000000   0.000000   0.000000  
C05-047          682.411000 15.069000  0.000000   0.000000   0.000000  
C05-049          682.480000 17.145000  0.000000   0.000000   0.000000  
C05-052          689.135000 13.281000  0.000000   0.000000   0.000000  
C05-053          686.062000 16.174000  0.000000   0.000000   0.000000  
C05-056          673.231000 9.117000   0.000000   0.000000   0.000000  
C05-058          673.293000 8.434000   0.000000   0.000000   0.000000  
C05-063B         684.139000 12.834000  0.000000   0.000000   0.000000  
C05-063C         685.062000 9.917000   0.000000   0.000000   0.000000  
C05-065          691.720000 12.576000  0.000000   0.000000   0.000000  
C05-066          677.767000 9.671000   0.000000   0.000000   0.000000  
C05-067          673.175000 15.276000  0.000000   0.000000   0.000000  
C05-068          681.551000 14.666000  0.000000   0.000000   0.000000  
C05-068A         681.600000 14.617000  0.000000   0.000000   0.000000  
C05-081          693.933000 13.301000  0.000000   0.000000   0.000000  
C05-092          685.737000 9.798000   0.000000   0.000000   0.000000  
C05-092A         685.759000 9.776000   0.000000   0.000000   0.000000  
C05-092B         687.998000 10.873000  0.000000   0.000000   0.000000  
C05-094          690.429000 9.662000   0.000000   0.000000   0.000000  
C05-094A         690.429000 11.342000  0.000000   0.000000   0.000000  
C05-095          693.588000 12.109000  0.000000   0.000000   0.000000  
C05-101          680.705000 11.568000  0.000000   0.000000   0.000000  
C05-102          682.555000 15.758000  0.000000   0.000000   0.000000  
C05-103          680.828000 9.845000   0.000000   0.000000   0.000000  
C05-104          682.556000 15.458000  0.000000   0.000000   0.000000  
C05-105          681.343000 11.986000  0.000000   0.000000   0.000000  
C05-106          679.940000 9.349000   0.000000   0.000000   0.000000  
C05-107          682.144000 11.249000  0.000000   0.000000   0.000000  
C05-108          682.833000 10.967000  0.000000   0.000000   0.000000  
C05-109          682.931000 14.161000  0.000000   0.000000   0.000000  
C05-111          684.879000 14.119000  0.000000   0.000000   0.000000  
C05-112          677.324000 15.105000  0.000000   0.000000   0.000000  
C05-114          674.720000 9.534000   0.000000   0.000000   0.000000  
C05-116          676.327000 7.890000   0.000000   0.000000   0.000000  
C06-006          670.534000 11.032000  0.000000   0.000000   0.000000  