[TITLE]
;;Project Title/Notes

[OPTIONS]
;;Option             Value
FLOW_UNITS           CFS
INFILTRATION         HORTON
FLOW_ROUTING         DYNWAVE
LINK_OFFSETS         DEPTH
MIN_SLOPE            0
ALLOW_PONDING        NO
SKIP_STEADY_STATE    NO

START_DATE           01/01/2002
START_TIME           00:00:00
REPORT_START_DATE    01/01/2002
REPORT_START_TIME    00:00:00
END_DATE             01/01/2002
END_TIME             23:00:00
SWEEP_START          01/01
SWEEP_END            12/31
DRY_DAYS             5.000000
REPORT_STEP          00:05:00
WET_STEP             00:01:00
DRY_STEP             00:01:00
ROUTING_STEP         0:00:30 

INERTIAL_DAMPING     NONE
NORMAL_FLOW_LIMITED  BOTH
FORCE_MAIN_EQUATION  H-W
VARIABLE_STEP        0.75
LENGTHENING_STEP     0
MIN_SURFAREA         0
MAX_TRIALS           0
HEAD_TOLERANCE       0
SYS_FLOW_TOL         5
LAT_FLOW_TOL         5
MINIMUM_STEP         0.5
THREADS              1

[EVAPORATION]
;;Data Source    Parameters
;;-------------- ----------------
CONSTANT         0.1
DRY_ONLY         NO

[RAINGAGES]
;;Name           Format    Interval SCF      Source    
;;-------------- --------- ------ ------ ----------
GAGE_HMS_TYPE1A_10MIN CUMULATIVE 0.166667 1.000000 TIMESERIES HMS_TYPE1A_10MIN
GAGE_HMS_TYPE1A_15MIN CUMULATIVE 0.250000 1.000000 TIMESERIES HMS_TYPE1A_15MIN
GAGE_HMS_TYPE1A_1HOUR CUMULATIVE 1.000000 1.000000 TIMESERIES HMS_TYPE1A_1HOUR
GAGE_HMS_TYPE1A_1MIN CUMULATIVE 0.016667 1.000000 TIMESERIES HMS_TYPE1A_1MIN 
GAGE_HMS_TYPE1A_20MIN CUMULATIVE 0.333333 1.000000 TIMESERIES HMS_TYPE1A_20MIN
GAGE_HMS_TYPE1A_2MIN CUMULATIVE 0.033333 1.000000 TIMESERIES HMS_TYPE1A_2MIN 
GAGE_HMS_TYPE1A_30MIN CUMULATIVE 0.500000 1.000000 TIMESERIES HMS_TYPE1A_30MIN
GAGE_HMS_TYPE1A_3MIN CUMULATIVE 0.050000 1.000000 TIMESERIES HMS_TYPE1A_3MIN 
GAGE_HMS_TYPE1A_4MIN CUMULATIVE 0.001111 1.000000 TIMESERIES HMS_TYPE1A_4MIN 
GAGE_HMS_TYPE1A_5MIN CUMULATIVE 0.083333 1.000000 TIMESERIES HMS_TYPE1A_5MIN 
GAGE_HMS_TYPE1A_6MIN CUMULATIVE 0.100000 1.000000 TIMESERIES HMS_TYPE1A_6MIN 
GAGE_HMS_TYPE1_10MIN CUMULATIVE 0.166667 1.000000 TIMESERIES HMS_TYPE1_10MIN 
GAGE_HMS_TYPE1_15MIN CUMULATIVE 0.250000 1.000000 TIMESERIES HMS_TYPE1_15MIN 
GAGE_HMS_TYPE1_1HOUR CUMULATIVE 1.000000 1.000000 TIMESERIES HMS_TYPE1_1HOUR 
GAGE_HMS_TYPE1_1MIN CUMULATIVE 0.016667 1.000000 TIMESERIES HMS_TYPE1_2MIN  
GAGE_HMS_TYPE1_20MIN CUMULATIVE 0.333333 1.000000 TIMESERIES HMS_TYPE1_20MIN 
GAGE_HMS_TYPE1_2MIN CUMULATIVE 0.033333 1.000000 TIMESERIES HMS_TYPE1_2MIN  
GAGE_HMS_TYPE1_30MIN CUMULATIVE 0.500000 1.000000 TIMESERIES HMS_TYPE1_30MIN 
GAGE_HMS_TYPE1_3MIN CUMULATIVE 0.050000 1.000000 TIMESERIES HMS_TYPE1_3MIN  
GAGE_HMS_TYPE1_4MIN CUMULATIVE 0.001111 1.000000 TIMESERIES HMS_TYPE1_4MIN  
GAGE_HMS_TYPE1_5MIN CUMULATIVE 0.083333 1.000000 TIMESERIES HMS_TYPE1_5MIN  
GAGE_HMS_TYPE1_6MIN CUMULATIVE 0.100000 1.000000 TIMESERIES HMS_TYPE1_6MIN  
GAGE_HMS_TYPE2_10MIN CUMULATIVE 0.166667 1.000000 TIMESERIES HMS_TYPE2_10MIN 
GAGE_HMS_TYPE2_15MIN CUMULATIVE 0.250000 1.000000 TIMESERIES HMS_TYPE2_15MIN 
GAGE_HMS_TYPE2_1HOUR CUMULATIVE 1.000000 1.000000 TIMESERIES HMS_TYPE2_1HOUR 
GAGE_HMS_TYPE2_1MIN CUMULATIVE 0.016667 1.000000 TIMESERIES HMS_TYPE2_1MIN  
GAGE_HMS_TYPE2_20MIN CUMULATIVE 0.333333 1.000000 TIMESERIES HMS_TYPE2_20MIN 
GAGE_HMS_TYPE2_2MIN CUMULATIVE 0.033333 1.000000 TIMESERIES HMS_TYPE2_2MIN  
GAGE_HMS_TYPE2_30MIN CUMULATIVE 0.500000 1.000000 TIMESERIES HMS_TYPE2_30MIN 
GAGE_HMS_TYPE2_3MIN CUMULATIVE 0.050000 1.000000 TIMESERIES HMS_TYPE2_3MIN  
GAGE_HMS_TYPE2_4MIN CUMULATIVE 0.001111 1.000000 TIMESERIES HMS_TYPE2_4MIN  
GAGE_HMS_TYPE2_5MIN CUMULATIVE 0.083333 1.000000 TIMESERIES HMS_TYPE2_5MIN  
GAGE_HMS_TYPE2_6MIN CUMULATIVE 0.100000 1.000000 TIMESERIES HMS_TYPE2_6MIN  
GAGE_HMS_TYPE3_10MIN CUMULATIVE 0.166667 1.000000 TIMESERIES HMS_TYPE3_10MIN 
GAGE_HMS_TYPE3_15MIN CUMULATIVE 0.250000 1.000000 TIMESERIES HMS_TYPE3_15MIN 
GAGE_HMS_TYPE3_1HOUR CUMULATIVE 1.000000 1.000000 TIMESERIES HMS_TYPE3_1HOUR 
GAGE_HMS_TYPE3_1MIN CUMULATIVE 0.016667 1.000000 TIMESERIES HMS_TYPE3_1MIN  
GAGE_HMS_TYPE3_20MIN CUMULATIVE 0.333333 1.000000 TIMESERIES HMS_TYPE3_20MIN 
GAGE_HMS_TYPE3_2MIN CUMULATIVE 0.033333 1.000000 TIMESERIES HMS_TYPE3_2MIN  
GAGE_HMS_TYPE3_30MIN CUMULATIVE 0.500000 1.000000 TIMESERIES HMS_TYPE3_30MIN 
GAGE_HMS_TYPE3_3MIN CUMULATIVE 0.050000 1.000000 TIMESERIES HMS_TYPE3_3MIN  
GAGE_HMS_TYPE3_4MIN CUMULATIVE 0.001111 1.000000 TIMESERIES HMS_TYPE3_4MIN  
GAGE_HMS_TYPE3_5MIN CUMULATIVE 0.083333 1.000000 TIMESERIES HMS_TYPE3_5MIN  
GAGE_HMS_TYPE3_6MIN CUMULATIVE 0.100000 1.000000 TIMESERIES HMS_TYPE3_6MIN  

[SUBCATCHMENTS]
;;Name           Rain Gage        Outlet           Area     %Imperv  Width    %Slope   CurbLen  SnowPack        
;;-------------- ---------------- ---------------- -------- -------- -------- -------- -------- ----------------
1                GAGE_HMS_TYPE1A_10MIN 1                5        25       500      0.5      0                        

[SUBAREAS]
;;Subcatchment   N-Imperv   N-Perv     S-Imperv   S-Perv     PctZero    RouteTo    PctRouted 
;;-------------- ---------- ---------- ---------- ---------- ---------- ---------- ----------
1                0.01       0.1        0.05       0.05       25         OUTLET    

[INFILTRATION]
;;Subcatchment   MaxRate    MinRate    Decay      DryTime    MaxInfil  
;;-------------- ---------- ---------- ---------- ---------- ----------
1                3.0        0.5        4          7          0         

[OUTFALLS]
;;Name           Elevation  Type       Stage Data       Gated    Route To        
;;-------------- ---------- ---------- ---------------- -------- ----------------
2                0          FREE                        NO                       

[CONTROLS]



[TIMESERIES]
;;Name           Date       Time       Value     
;;-------------- ---------- ---------- ----------
HMS_TYPE1_1MIN              0:00       0.000000  
HMS_TYPE1_1MIN              0:01       0.000260  
HMS_TYPE1_1MIN              0:02       0.000530  
HMS_TYPE1_1MIN              0:03       0.000810  
HMS_TYPE1_1MIN              0:04       0.001100  
HMS_TYPE1_1MIN              0:05       0.001390  
HMS_TYPE1_1MIN              0:06       0.001690  
HMS_TYPE1_1MIN              0:07       0.001990  
HMS_TYPE1_1MIN              0:08       0.002290  
HMS_TYPE1_1MIN              0:09       0.002590  
HMS_TYPE1_1MIN              0:10       0.002890  
HMS_TYPE1_1MIN              0:11       0.003190  
HMS_TYPE1_1MIN              0:12       0.003480  
HMS_TYPE1_1MIN              0:13       0.003770  
HMS_TYPE1_1MIN              0:14       0.004050  
HMS_TYPE1_1MIN              0:15       0.004330  
HMS_TYPE1_1MIN              0:16       0.004610  
HMS_TYPE1_1MIN              0:17       0.004890  
HMS_TYPE1_1MIN              0:18       0.005180  
HMS_TYPE1_1MIN              0:19       0.005480  
HMS_TYPE1_1MIN              0:20       0.005780  
HMS_TYPE1_1MIN              0:21       0.006080  
HMS_TYPE1_1MIN              0:22       0.006380  
HMS_TYPE1_1MIN              0:23       0.006680  
HMS_TYPE1_1MIN              0:24       0.006980  
HMS_TYPE1_1MIN              0:25       0.007270  
HMS_TYPE1_1MIN              0:26       0.007550  
HMS_TYPE1_1MIN              0:27       0.007830  
HMS_TYPE1_1MIN              0:28       0.008110  
HMS_TYPE1_1MIN              0:29       0.008390  
HMS_TYPE1_1MIN              0:30       0.008680  
HMS_TYPE1_1MIN              0:31       0.008970  
HMS_TYPE1_1MIN              0:32       0.009270  
HMS_TYPE1_1MIN              0:33       0.009570  
HMS_TYPE1_1MIN              0:34       0.009870  
HMS_TYPE1_1MIN              0:35       0.010170  
HMS_TYPE1_1MIN              0:36       0.010470  
HMS_TYPE1_1MIN              0:37       0.010760  
HMS_TYPE1_1MIN              0:38       0.011050  
HMS_TYPE1_1MIN              0:39       0.011330  
HMS_TYPE1_1MIN              0:40       0.011610  
HMS_TYPE1_1MIN              0:41       0.011890  
HMS_TYPE1_1MIN              0:42       0.012170  
HMS_TYPE1_1MIN              0:43       0.012450  
HMS_TYPE1_1MIN              0:44       0.012730  
HMS_TYPE1_1MIN              0:45       0.013010  
HMS_TYPE1_1MIN              0:46       0.013290  
HMS_TYPE1_1MIN              0:47       0.013580  
HMS_TYPE1_1MIN              0:48       0.013870  
HMS_TYPE1_1MIN              0:49       0.014170  
HMS_TYPE1_1MIN              0:50       0.014470  
HMS_TYPE1_1MIN              0:51       0.014770  
HMS_TYPE1_1MIN              0:52       0.015080  
HMS_TYPE1_1MIN              0:53       0.015380  
HMS_TYPE1_1MIN              0:54       0.015670  
HMS_TYPE1_1MIN              0:55       0.015960  
HMS_TYPE1_1MIN              0:56       0.016240  
HMS_TYPE1_1MIN              0:57       0.016520  
HMS_TYPE1_1MIN              0:58       0.016800  
HMS_TYPE1_1MIN              0:59       0.017080  
HMS_TYPE1_1MIN              1:00       0.017370  
HMS_TYPE1_1MIN              1:01       0.017660  
HMS_TYPE1_1MIN              1:02       0.017960  
HMS_TYPE1_1MIN              1:03       0.018260  
HMS_TYPE1_1MIN              1:04       0.018560  
HMS_TYPE1_1MIN              1:05       0.018860  
HMS_TYPE1_1MIN              1:06       0.019170  
HMS_TYPE1_1MIN              1:07       0.019480  
HMS_TYPE1_1MIN              1:08       0.019780  
HMS_TYPE1_1MIN              1:09       0.020080  
HMS_TYPE1_1MIN              1:10       0.020380  
HMS_TYPE1_1MIN              1:11       0.020680  
HMS_TYPE1_1MIN              1:12       0.020970  
HMS_TYPE1_1MIN              1:13       0.021260  
HMS_TYPE1_1MIN              1:14       0.021540  
HMS_TYPE1_1MIN              1:15       0.021820  
HMS_TYPE1_1MIN              1:16       0.022100  
HMS_TYPE1_1MIN              1:17       0.022380  
HMS_TYPE1_1MIN              1:18       0.022670  
HMS_TYPE1_1MIN              1:19       0.022970  
HMS_TYPE1_1MIN              1:20       0.023270  
HMS_TYPE1_1MIN              1:21       0.023570  
HMS_TYPE1_1MIN              1:22       0.023870  
HMS_TYPE1_1MIN              1:23       0.024170  
HMS_TYPE1_1MIN              1:24       0.024470  
HMS_TYPE1_1MIN              1:25       0.024760  
HMS_TYPE1_1MIN              1:26       0.025040  
HMS_TYPE1_1MIN              1:27       0.025320  
HMS_TYPE1_1MIN              1:28       0.025600  
HMS_TYPE1_1MIN              1:29       0.025880  
HMS_TYPE1_1MIN              1:30       0.026170  
HMS_TYPE1_1MIN              1:31       0.026470  
HMS_TYPE1_1MIN              1:32       0.026770  
HMS_TYPE1_1MIN              1:33       0.027070  
HMS_TYPE1_1MIN              1:34       0.027370  
HMS_TYPE1_1MIN              1:35       0.027670  
HMS_TYPE1_1MIN              1:36       0.027970  
HMS_TYPE1_1MIN              1:37       0.028260  
HMS_TYPE1_1MIN              1:38       0.028540  
HMS_TYPE1_1MIN              1:39       0.028820  
HMS_TYPE1_1MIN              1:40       0.029100  
HMS_TYPE1_1MIN              1:41       0.029380  
HMS_TYPE1_1MIN              1:42       0.029670  
HMS_TYPE1_1MIN              1:43       0.029970  
HMS_TYPE1_1MIN              1:44       0.030270  
HMS_TYPE1_1MIN              1:45       0.030570  
HMS_TYPE1_1MIN              1:46       0.030870  
HMS_TYPE1_1MIN              1:47       0.031170  
HMS_TYPE1_1MIN              1:48       0.031470  
HMS_TYPE1_1MIN              1:49       0.031760  
HMS_TYPE1_1MIN              1:50       0.032040  
HMS_TYPE1_1MIN              1:51       0.032320  
HMS_TYPE1_1MIN              1:52       0.032600  
HMS_TYPE1_1MIN              1:53       0.032880  
HMS_TYPE1_1MIN              1:54       0.033170  
HMS_TYPE1_1MIN              1:55       0.033460  
HMS_TYPE1_1MIN              1:56       0.033760  
HMS_TYPE1_1MIN              1:57       0.034060  
HMS_TYPE1_1MIN              1:58       0.034360  
HMS_TYPE1_1MIN              1:59       0.034670  
HMS_TYPE1_1MIN              2:00       0.034970  
HMS_TYPE1_1MIN              2:01       0.035270  
HMS_TYPE1_1MIN              2:02       0.035570  
HMS_TYPE1_1MIN              2:03       0.035870  
HMS_TYPE1_1MIN              2:04       0.036170  
HMS_TYPE1_1MIN              2:05       0.036470  
HMS_TYPE1_1MIN              2:06       0.036770  
HMS_TYPE1_1MIN              2:07       0.037070  
HMS_TYPE1_1MIN              2:08       0.037370  
HMS_TYPE1_1MIN              2:09       0.037670  
HMS_TYPE1_1MIN              2:10       0.037970  
HMS_TYPE1_1MIN              2:11       0.038270  
HMS_TYPE1_1MIN              2:12       0.038570  
HMS_TYPE1_1MIN              2:13       0.038870  
HMS_TYPE1_1MIN              2:14       0.039160  
HMS_TYPE1_1MIN              2:15       0.039460  
HMS_TYPE1_1MIN              2:16       0.039760  
HMS_TYPE1_1MIN              2:17       0.040060  
HMS_TYPE1_1MIN              2:18       0.040370  
HMS_TYPE1_1MIN              2:19       0.040680  
HMS_TYPE1_1MIN              2:20       0.040990  
HMS_TYPE1_1MIN              2:21       0.041310  
HMS_TYPE1_1MIN              2:22       0.041630  
HMS_TYPE1_1MIN              2:23       0.041950  
HMS_TYPE1_1MIN              2:24       0.042270  
HMS_TYPE1_1MIN              2:25       0.042590  
HMS_TYPE1_1MIN              2:26       0.042910  
HMS_TYPE1_1MIN              2:27       0.043220  
HMS_TYPE1_1MIN              2:28       0.043540  
HMS_TYPE1_1MIN              2:29       0.043850  
HMS_TYPE1_1MIN              2:30       0.044170  
HMS_TYPE1_1MIN              2:31       0.044490  
HMS_TYPE1_1MIN              2:32       0.044800  
HMS_TYPE1_1MIN              2:33       0.045120  
HMS_TYPE1_1MIN              2:34       0.045440  
HMS_TYPE1_1MIN              2:35       0.045750  
HMS_TYPE1_1MIN              2:36       0.046070  
HMS_TYPE1_1MIN              2:37       0.046380  
HMS_TYPE1_1MIN              2:38       0.046700  
HMS_TYPE1_1MIN              2:39       0.047010  
HMS_TYPE1_1MIN              2:40       0.047330  
HMS_TYPE1_1MIN              2:41       0.047650  
HMS_TYPE1_1MIN              2:42       0.047970  
HMS_TYPE1_1MIN              2:43       0.048300  
HMS_TYPE1_1MIN              2:44       0.048630  
HMS_TYPE1_1MIN              2:45       0.048960  
HMS_TYPE1_1MIN              2:46       0.049300  
HMS_TYPE1_1MIN              2:47       0.049630  
HMS_TYPE1_1MIN              2:48       0.049970  
HMS_TYPE1_1MIN              2:49       0.050310  
HMS_TYPE1_1MIN              2:50       0.050640  
HMS_TYPE1_1MIN              2:51       0.050970  
HMS_TYPE1_1MIN              2:52       0.051310  
HMS_TYPE1_1MIN              2:53       0.051640  
HMS_TYPE1_1MIN              2:54       0.051970  
HMS_TYPE1_1MIN              2:55       0.052300  
HMS_TYPE1_1MIN              2:56       0.052630  
HMS_TYPE1_1MIN              2:57       0.052960  
HMS_TYPE1_1MIN              2:58       0.053290  
HMS_TYPE1_1MIN              2:59       0.053630  
HMS_TYPE1_1MIN              3:00       0.053970  
HMS_TYPE1_1MIN              3:01       0.054310  
HMS_TYPE1_1MIN              3:02       0.054660  
HMS_TYPE1_1MIN              3:03       0.055010  
HMS_TYPE1_1MIN              3:04       0.055360  
HMS_TYPE1_1MIN              3:05       0.055720  
HMS_TYPE1_1MIN              3:06       0.056070  
HMS_TYPE1_1MIN              3:07       0.056420  
HMS_TYPE1_1MIN              3:08       0.056770  
HMS_TYPE1_1MIN              3:09       0.057120  
HMS_TYPE1_1MIN              3:10       0.057470  
HMS_TYPE1_1MIN              3:11       0.057820  
HMS_TYPE1_1MIN              3:12       0.058170  
HMS_TYPE1_1MIN              3:13       0.058520  
HMS_TYPE1_1MIN              3:14       0.058860  
HMS_TYPE1_1MIN              3:15       0.059210  
HMS_TYPE1_1MIN              3:16       0.059560  
HMS_TYPE1_1MIN              3:17       0.059910  
HMS_TYPE1_1MIN              3:18       0.060270  
HMS_TYPE1_1MIN              3:19       0.060630  
HMS_TYPE1_1MIN              3:20       0.061000  
HMS_TYPE1_1MIN              3:21       0.061360  
HMS_TYPE1_1MIN              3:22       0.061730  
HMS_TYPE1_1MIN              3:23       0.062100  
HMS_TYPE1_1MIN              3:24       0.062470  
HMS_TYPE1_1MIN              3:25       0.062840  
HMS_TYPE1_1MIN              3:26       0.063210  
HMS_TYPE1_1MIN              3:27       0.063570  
HMS_TYPE1_1MIN              3:28       0.063940  
HMS_TYPE1_1MIN              3:29       0.064300  
HMS_TYPE1_1MIN              3:30       0.064670  
HMS_TYPE1_1MIN              3:31       0.065040  
HMS_TYPE1_1MIN              3:32       0.065400  
HMS_TYPE1_1MIN              3:33       0.065770  
HMS_TYPE1_1MIN              3:34       0.066140  
HMS_TYPE1_1MIN              3:35       0.066500  
HMS_TYPE1_1MIN              3:36       0.066870  
HMS_TYPE1_1MIN              3:37       0.067230  
HMS_TYPE1_1MIN              3:38       0.067600  
HMS_TYPE1_1MIN              3:39       0.067960  
HMS_TYPE1_1MIN              3:40       0.068330  
HMS_TYPE1_1MIN              3:41       0.068700  
HMS_TYPE1_1MIN              3:42       0.069070  
HMS_TYPE1_1MIN              3:43       0.069450  
HMS_TYPE1_1MIN              3:44       0.069830  
HMS_TYPE1_1MIN              3:45       0.070210  
HMS_TYPE1_1MIN              3:46       0.070600  
HMS_TYPE1_1MIN              3:47       0.070980  
HMS_TYPE1_1MIN              3:48       0.071370  
HMS_TYPE1_1MIN              3:49       0.071760  
HMS_TYPE1_1MIN              3:50       0.072140  
HMS_TYPE1_1MIN              3:51       0.072520  
HMS_TYPE1_1MIN              3:52       0.072910  
HMS_TYPE1_1MIN              3:53       0.073290  
HMS_TYPE1_1MIN              3:54       0.073670  
HMS_TYPE1_1MIN              3:55       0.074050  
HMS_TYPE1_1MIN              3:56       0.074430  
HMS_TYPE1_1MIN              3:57       0.074810  
HMS_TYPE1_1MIN              3:58       0.075190  
HMS_TYPE1_1MIN              3:59       0.075580  
HMS_TYPE1_1MIN              4:00       0.075970  
HMS_TYPE1_1MIN              4:01       0.076370  
HMS_TYPE1_1MIN              4:02       0.076770  
HMS_TYPE1_1MIN              4:03       0.077170  
HMS_TYPE1_1MIN              4:04       0.077570  
HMS_TYPE1_1MIN              4:05       0.077970  
HMS_TYPE1_1MIN              4:06       0.078370  
HMS_TYPE1_1MIN              4:07       0.078760  
HMS_TYPE1_1MIN              4:08       0.079140  
HMS_TYPE1_1MIN              4:09       0.079520  
HMS_TYPE1_1MIN              4:10       0.079900  
HMS_TYPE1_1MIN              4:11       0.080280  
HMS_TYPE1_1MIN              4:12       0.080670  
HMS_TYPE1_1MIN              4:13       0.081060  
HMS_TYPE1_1MIN              4:14       0.081460  
HMS_TYPE1_1MIN              4:15       0.081860  
HMS_TYPE1_1MIN              4:16       0.082260  
HMS_TYPE1_1MIN              4:17       0.082660  
HMS_TYPE1_1MIN              4:18       0.083070  
HMS_TYPE1_1MIN              4:19       0.083480  
HMS_TYPE1_1MIN              4:20       0.083880  
HMS_TYPE1_1MIN              4:21       0.084280  
HMS_TYPE1_1MIN              4:22       0.084680  
HMS_TYPE1_1MIN              4:23       0.085080  
HMS_TYPE1_1MIN              4:24       0.085470  
HMS_TYPE1_1MIN              4:25       0.085860  
HMS_TYPE1_1MIN              4:26       0.086240  
HMS_TYPE1_1MIN              4:27       0.086620  
HMS_TYPE1_1MIN              4:28       0.087000  
HMS_TYPE1_1MIN              4:29       0.087380  
HMS_TYPE1_1MIN              4:30       0.087770  
HMS_TYPE1_1MIN              4:31       0.088160  
HMS_TYPE1_1MIN              4:32       0.088560  
HMS_TYPE1_1MIN              4:33       0.088960  
HMS_TYPE1_1MIN              4:34       0.089370  
HMS_TYPE1_1MIN              4:35       0.089770  
HMS_TYPE1_1MIN              4:36       0.090170  
HMS_TYPE1_1MIN              4:37       0.090570  
HMS_TYPE1_1MIN              4:38       0.090970  
HMS_TYPE1_1MIN              4:39       0.091360  
HMS_TYPE1_1MIN              4:40       0.091760  
HMS_TYPE1_1MIN              4:41       0.092160  
HMS_TYPE1_1MIN              4:42       0.092570  
HMS_TYPE1_1MIN              4:43       0.092980  
HMS_TYPE1_1MIN              4:44       0.093400  
HMS_TYPE1_1MIN              4:45       0.093820  
HMS_TYPE1_1MIN              4:46       0.094240  
HMS_TYPE1_1MIN              4:47       0.094660  
HMS_TYPE1_1MIN              4:48       0.095070  
HMS_TYPE1_1MIN              4:49       0.095470  
HMS_TYPE1_1MIN              4:50       0.095870  
HMS_TYPE1_1MIN              4:51       0.096270  
HMS_TYPE1_1MIN              4:52       0.096670  
HMS_TYPE1_1MIN              4:53       0.097070  
HMS_TYPE1_1MIN              4:54       0.097470  
HMS_TYPE1_1MIN              4:55       0.097880  
HMS_TYPE1_1MIN              4:56       0.098300  
HMS_TYPE1_1MIN              4:57       0.098720  
HMS_TYPE1_1MIN              4:58       0.099140  
HMS_TYPE1_1MIN              4:59       0.099560  
HMS_TYPE1_1MIN              5:00       0.099970  
HMS_TYPE1_1MIN              5:01       0.100370  
HMS_TYPE1_1MIN              5:02       0.100770  
HMS_TYPE1_1MIN              5:03       0.101170  
HMS_TYPE1_1MIN              5:04       0.101570  
HMS_TYPE1_1MIN              5:05       0.101970  
HMS_TYPE1_1MIN              5:06       0.102370  
HMS_TYPE1_1MIN              5:07       0.102770  
HMS_TYPE1_1MIN              5:08       0.103170  
HMS_TYPE1_1MIN              5:09       0.103570  
HMS_TYPE1_1MIN              5:10       0.104070  
HMS_TYPE1_1MIN              5:11       0.104470  
HMS_TYPE1_1MIN              5:12       0.104870  
HMS_TYPE1_1MIN              5:13       0.105270  
HMS_TYPE1_1MIN              5:14       0.105670  
HMS_TYPE1_1MIN              5:15       0.106070  
HMS_TYPE1_1MIN              5:16       0.106470  
HMS_TYPE1_1MIN              5:17       0.106870  
HMS_TYPE1_1MIN              5:18       0.107270  
HMS_TYPE1_1MIN              5:19       0.107670  
HMS_TYPE1_1MIN              5:20       0.108070  
HMS_TYPE1_1MIN              5:21       0.108470  
HMS_TYPE1_1MIN              5:22       0.108970  
HMS_TYPE1_1MIN              5:23       0.109370  
HMS_TYPE1_1MIN              5:24       0.109770  
HMS_TYPE1_1MIN              5:25       0.110170  
HMS_TYPE1_1MIN              5:26       0.110570  
HMS_TYPE1_1MIN              5:27       0.111070  
HMS_TYPE1_1MIN              5:28       0.111470  
HMS_TYPE1_1MIN              5:29       0.111870  
HMS_TYPE1_1MIN              5:30       0.112270  
HMS_TYPE1_1MIN              5:31       0.112670  
HMS_TYPE1_1MIN              5:32       0.113070  
HMS_TYPE1_1MIN              5:33       0.113470  
HMS_TYPE1_1MIN              5:34       0.113970  
HMS_TYPE1_1MIN              5:35       0.114370  
HMS_TYPE1_1MIN              5:36       0.114770  
HMS_TYPE1_1MIN              5:37       0.115170  
HMS_TYPE1_1MIN              5:38       0.115670  
HMS_TYPE1_1MIN              5:39       0.116070  
HMS_TYPE1_1MIN              5:40       0.116470  
HMS_TYPE1_1MIN              5:41       0.116970  
HMS_TYPE1_1MIN              5:42       0.117370  
HMS_TYPE1_1MIN              5:43       0.117770  
HMS_TYPE1_1MIN              5:44       0.118170  
HMS_TYPE1_1MIN              5:45       0.118570  
HMS_TYPE1_1MIN              5:46       0.119070  
HMS_TYPE1_1MIN              5:47       0.119470  
HMS_TYPE1_1MIN              5:48       0.119870  
HMS_TYPE1_1MIN              5:49       0.120270  
HMS_TYPE1_1MIN              5:50       0.120770  
HMS_TYPE1_1MIN              5:51       0.121170  
HMS_TYPE1_1MIN              5:52       0.121570  
HMS_TYPE1_1MIN              5:53       0.122070  
HMS_TYPE1_1MIN              5:54       0.122470  
HMS_TYPE1_1MIN              5:55       0.122870  
HMS_TYPE1_1MIN              5:56       0.123270  
HMS_TYPE1_1MIN              5:57       0.123770  
HMS_TYPE1_1MIN              5:58       0.124170  
HMS_TYPE1_1MIN              5:59       0.124570  
HMS_TYPE1_1MIN              6:00       0.124970  
HMS_TYPE1_1MIN              6:01       0.125370  
HMS_TYPE1_1MIN              6:02       0.125870  
HMS_TYPE1_1MIN              6:03       0.126270  
HMS_TYPE1_1MIN              6:04       0.126670  
HMS_TYPE1_1MIN              6:05       0.127170  
HMS_TYPE1_1MIN              6:06       0.127570  
HMS_TYPE1_1MIN              6:07       0.127970  
HMS_TYPE1_1MIN              6:08       0.128470  
HMS_TYPE1_1MIN              6:09       0.128870  
HMS_TYPE1_1MIN              6:10       0.129370  
HMS_TYPE1_1MIN              6:11       0.129770  
HMS_TYPE1_1MIN              6:12       0.130270  
HMS_TYPE1_1MIN              6:13       0.130770  
HMS_TYPE1_1MIN              6:14       0.131270  
HMS_TYPE1_1MIN              6:15       0.131670  
HMS_TYPE1_1MIN              6:16       0.132170  
HMS_TYPE1_1MIN              6:17       0.132670  
HMS_TYPE1_1MIN              6:18       0.133170  
HMS_TYPE1_1MIN              6:19       0.133670  
HMS_TYPE1_1MIN              6:20       0.134170  
HMS_TYPE1_1MIN              6:21       0.134570  
HMS_TYPE1_1MIN              6:22       0.135070  
HMS_TYPE1_1MIN              6:23       0.135570  
HMS_TYPE1_1MIN              6:24       0.136070  
HMS_TYPE1_1MIN              6:25       0.136570  
HMS_TYPE1_1MIN              6:26       0.137070  
HMS_TYPE1_1MIN              6:27       0.137570  
HMS_TYPE1_1MIN              6:28       0.138070  
HMS_TYPE1_1MIN              6:29       0.138570  
HMS_TYPE1_1MIN              6:30       0.139070  
HMS_TYPE1_1MIN              6:31       0.139570  
HMS_TYPE1_1MIN              6:32       0.140070  
HMS_TYPE1_1MIN              6:33       0.140670  
HMS_TYPE1_1MIN              6:34       0.141170  
HMS_TYPE1_1MIN              6:35       0.141770  
HMS_TYPE1_1MIN              6:36       0.142270  
HMS_TYPE1_1MIN              6:37       0.142770  
HMS_TYPE1_1MIN              6:38       0.143370  
HMS_TYPE1_1MIN              6:39       0.143870  
HMS_TYPE1_1MIN              6:40       0.144470  
HMS_TYPE1_1MIN              6:41       0.145070  
HMS_TYPE1_1MIN              6:42       0.145570  
HMS_TYPE1_1MIN              6:43       0.146070  
HMS_TYPE1_1MIN              6:44       0.146670  
HMS_TYPE1_1MIN              6:45       0.147170  
HMS_TYPE1_1MIN              6:46       0.147770  
HMS_TYPE1_1MIN              6:47       0.148270  
HMS_TYPE1_1MIN              6:48       0.148870  
HMS_TYPE1_1MIN              6:49       0.149470  
HMS_TYPE1_1MIN              6:50       0.149970  
HMS_TYPE1_1MIN              6:51       0.150570  
HMS_TYPE1_1MIN              6:52       0.151170  
HMS_TYPE1_1MIN              6:53       0.151770  
HMS_TYPE1_1MIN              6:54       0.152370  
HMS_TYPE1_1MIN              6:55       0.152970  
HMS_TYPE1_1MIN              6:56       0.153570  
HMS_TYPE1_1MIN              6:57       0.154170  
HMS_TYPE1_1MIN              6:58       0.154770  
HMS_TYPE1_1MIN              6:59       0.155370  
HMS_TYPE1_1MIN              7:00       0.155970  
HMS_TYPE1_1MIN              7:01       0.156570  
HMS_TYPE1_1MIN              7:02       0.157170  
HMS_TYPE1_1MIN              7:03       0.157870  
HMS_TYPE1_1MIN              7:04       0.158470  
HMS_TYPE1_1MIN              7:05       0.159070  
HMS_TYPE1_1MIN              7:06       0.159670  
HMS_TYPE1_1MIN              7:07       0.160270  
HMS_TYPE1_1MIN              7:08       0.160870  
HMS_TYPE1_1MIN              7:09       0.161470  
HMS_TYPE1_1MIN              7:10       0.162070  
HMS_TYPE1_1MIN              7:11       0.162670  
HMS_TYPE1_1MIN              7:12       0.163270  
HMS_TYPE1_1MIN              7:13       0.163870  
HMS_TYPE1_1MIN              7:14       0.164570  
HMS_TYPE1_1MIN              7:15       0.165170  
HMS_TYPE1_1MIN              7:16       0.165770  
HMS_TYPE1_1MIN              7:17       0.166470  
HMS_TYPE1_1MIN              7:18       0.167070  
HMS_TYPE1_1MIN              7:19       0.167670  
HMS_TYPE1_1MIN              7:20       0.168270  
HMS_TYPE1_1MIN              7:21       0.168970  
HMS_TYPE1_1MIN              7:22       0.169570  
HMS_TYPE1_1MIN              7:23       0.170170  
HMS_TYPE1_1MIN              7:24       0.170770  
HMS_TYPE1_1MIN              7:25       0.171370  
HMS_TYPE1_1MIN              7:26       0.172070  
HMS_TYPE1_1MIN              7:27       0.172670  
HMS_TYPE1_1MIN              7:28       0.173270  
HMS_TYPE1_1MIN              7:29       0.173970  
HMS_TYPE1_1MIN              7:30       0.174570  
HMS_TYPE1_1MIN              7:31       0.175170  
HMS_TYPE1_1MIN              7:32       0.175870  
HMS_TYPE1_1MIN              7:33       0.176470  
HMS_TYPE1_1MIN              7:34       0.177070  
HMS_TYPE1_1MIN              7:35       0.177770  
HMS_TYPE1_1MIN              7:36       0.178370  
HMS_TYPE1_1MIN              7:37       0.178970  
HMS_TYPE1_1MIN              7:38       0.179670  
HMS_TYPE1_1MIN              7:39       0.180370  
HMS_TYPE1_1MIN              7:40       0.180970  
HMS_TYPE1_1MIN              7:41       0.181670  
HMS_TYPE1_1MIN              7:42       0.182270  
HMS_TYPE1_1MIN              7:43       0.182870  
HMS_TYPE1_1MIN              7:44       0.183570  
HMS_TYPE1_1MIN              7:45       0.184170  
HMS_TYPE1_1MIN              7:46       0.184770  
HMS_TYPE1_1MIN              7:47       0.185470  
HMS_TYPE1_1MIN              7:48       0.186070  
HMS_TYPE1_1MIN              7:49       0.186770  
HMS_TYPE1_1MIN              7:50       0.187370  
HMS_TYPE1_1MIN              7:51       0.188070  
HMS_TYPE1_1MIN              7:52       0.188770  
HMS_TYPE1_1MIN              7:53       0.189370  
HMS_TYPE1_1MIN              7:54       0.190070  
HMS_TYPE1_1MIN              7:55       0.190770  
HMS_TYPE1_1MIN              7:56       0.191370  
HMS_TYPE1_1MIN              7:57       0.191970  
HMS_TYPE1_1MIN              7:58       0.192670  
HMS_TYPE1_1MIN              7:59       0.193270  
HMS_TYPE1_1MIN              8:00       0.193970  
HMS_TYPE1_1MIN              8:01       0.194670  
HMS_TYPE1_1MIN              8:02       0.195370  