[TITLE]
;;Project Title/Notes

[OPTIONS]
;;Option             Value
FLOW_UNITS           CMS
INFILTRATION         HORTON
FLOW_ROUTING         DYNWAVE
LINK_OFFSETS         DEPTH
MIN_SLOPE            0
ALLOW_PONDING        NO
SKIP_STEADY_STATE    NO

START_DATE           02/18/2018
START_TIME           00:00:00
REPORT_START_DATE    02/18/2018
REPORT_START_TIME    00:00:00
END_DATE             02/18/2018
END_TIME             23:55:00
SWEEP_START          01/01
SWEEP_END            12/31
DRY_DAYS             0.000000
REPORT_STEP          00:10:00
WET_STEP             00:05:00
DRY_STEP             01:00:00
ROUTING_STEP         0:00:10 

INERTIAL_DAMPING     PARTIAL
NORMAL_FLOW_LIMITED  BOTH
FORCE_MAIN_EQUATION  H-W
VARIABLE_STEP        0.75
LENGTHENING_STEP     0
MIN_SURFAREA         1.140000
MAX_TRIALS           8
HEAD_TOLERANCE       0.001500
SYS_FLOW_TOL         5
LAT_FLOW_TOL         5
MINIMUM_STEP         0.5
THREADS              1

[EVAPORATION]
;;Data Source    Parameters
;;-------------- ----------------
CONSTANT         0.000000
DRY_ONLY         NO

[RAINGAGES]
;;Name           Format    Interval SCF      Source    
;;-------------- --------- ------ ------ ----------
GAGE1            VOLUME    0:10     1.000000 TIMESERIES KALIBRASIMODEL  

[SUBCATCHMENTS]
;;Name           Rain Gage        Outlet           Area     %Imperv  Width    %Slope   CurbLen  SnowPack        
;;-------------- ---------------- ---------------- -------- -------- -------- -------- -------- ----------------
S1               GAGE1            J2               5.490000 47.480000 137.000000 0.040000 0.000000                 
S2               GAGE1            J3               9.410000 49.677300 275.000000 0.040000 0.000000                 
S3               GAGE1            J4               0.524100 49.551000 83.300000 0.020000 0.000000                 
S4               GAGE1            J12              10.270000 35.800000 476.000000 0.050000 0.000000                 
S5               GAGE1            J9               1.400000 41.000000 170.000000 0.050000 0.000000                 
S6               GAGE1            J8               1.200000 39.160000 102.000000 0.040000 0.000000                 
S7               GAGE1            J33              38.740000 31.400000 732.000000 0.050000 0.000000                 
S8               GAGE1            J34              6.660000 4.950000 619.000000 0.070000 0.000000                 
S9               GAGE1            J7               11.000000 28.000000 257.000000 0.040000 0.000000                 
S10              GAGE1            J13              4.905000 29.120000 276.000000 0.050000 0.000000                 
S11              GAGE1            J35              9.670000 15.710000 597.000000 0.060000 0.000000                 
S12              GAGE1            J36              11.000000 18.000000 842.000000 0.060000 0.000000                 
S13              GAGE1            J31              2.750000 17.000000 217.000000 0.070000 0.000000                 
S14              GAGE1            J30              3.430000 15.250000 256.000000 0.050000 0.000000                 
S15              GAGE1            J6               10.250000 32.000000 625.000000 0.020000 0.000000                 
S16              GAGE1            J24              12.830000 26.200000 390.000000 0.040000 0.000000                 
S17              GAGE1            J5               2.600000 37.500000 230.000000 0.040000 0.000000                 
S18              GAGE1            J15              10.140000 35.000000 337.000000 0.040000 0.000000                 
S19              GAGE1            J22              1.330000 12.500000 104.000000 0.040000 0.000000                 
S20              GAGE1            J14              1.074238 60.538100 183.000000 0.030000 0.000000                 
S21              GAGE1            J16              2.408608 31.096835 174.000000 0.030000 0.000000                 
S22              GAGE1            J19              1.750000 31.990000 320.000000 0.050000 0.000000                 
S23              GAGE1            J17              182.280000 29.480000 1123.500000 0.080000 0.000000                 
S25              GAGE1            J1               27.270000 39.620000 885.000000 0.070000 0.000000                 
S26              GAGE1            OUT2             162      35       1091     0.027    0.000000                 
S27              GAGE1            J29              6.650000 11.720000 268.000000 0.060000 0.000000                 
S28              GAGE1            J32              3.800000 5.540000 250.000000 0.050000 0.000000                 
S29              GAGE1            J26              14.140000 27.000000 391.000000 0.040000 0.000000                 
S30              GAGE1            J28              10.200000 3.000000 347.000000 0.060000 0.000000                 

[SUBAREAS]
;;Subcatchment   N-Imperv   N-Perv     S-Imperv   S-Perv     PctZero    RouteTo    PctRouted 
;;-------------- ---------- ---------- ---------- ---------- ---------- ---------- ----------
S1               0.024000   0.110000   1.270000   3.800000   25.000000  OUTLET    
S2               0.024000   0.150000   1.270000   3.800000   25.000000  OUTLET    
S3               0.024000   0.150000   1.270000   3.800000   25.000000  OUTLET    
S4               0.024000   0.160000   1.270000   4.000000   25.000000  OUTLET    
S5               0.024000   0.200000   1.270000   4.500000   25.000000  OUTLET    
S6               0.024000   0.150000   1.270000   3.800000   25.000000  OUTLET    
S7               0.024000   0.180000   1.270000   4.300000   25.000000  OUTLET    
S8               0.012000   0.170000   2.480000   4.100000   25.000000  OUTLET    
S9               0.022000   0.150000   1.500000   4.400000   25.000000  OUTLET    
S10              0.024000   0.150000   1.270000   3.800000   25.000000  OUTLET    
S11              0.024000   0.180000   1.270000   4.200000   25.000000  OUTLET    
S12              0.024000   0.150000   1.270000   3.800000   25.000000  OUTLET    
S13              0.021000   0.150000   1.540000   3.900000   25.000000  OUTLET    
S14              0.024000   0.180000   1.270000   4.300000   25.000000  OUTLET    
S15              0.023000   0.220000   1.400000   5.100000   25.000000  OUTLET    
S16              0.022000   0.170000   1.490000   4.100000   25.000000  OUTLET    
S17              0.016000   0.170000   2.060000   4.100000   25.000000  OUTLET    
S18              0.023000   0.210000   1.410000   4.700000   25.000000  OUTLET    
S19              0.024000   0.150000   1.600000   3.800000   25.000000  OUTLET    
S20              0.023000   0.160000   1.380000   3.900000   25.000000  OUTLET    
S21              0.024000   0.160000   1.270000   4.000000   25.000000  OUTLET    
S22              0.024000   0.180000   1.270000   4.200000   25.000000  OUTLET    
S23              0.023000   0.160000   0.050000   4.000000   25.000000  OUTLET    
S25              0.024000   0.150000   1.270000   3.800000   25.000000  OUTLET    
S26              0.024      0.100000   2.540000   2.540000   25.000000  OUTLET    
S27              0.024000   0.150000   1.270000   3.900000   25.000000  OUTLET    
S28              0.024000   0.140000   1.270000   3.800000   25.000000  OUTLET    
S29              0.024000   0.180000   1.290000   4.200000   25.000000  OUTLET    
S30              0.024000   0.190000   1.340000   4.300000   25.000000  OUTLET    

[INFILTRATION]
;;Subcatchment   MaxRate    MinRate    Decay      DryTime    MaxInfil  
;;-------------- ---------- ---------- ---------- ---------- ----------
S1               17.50000   2.50000    1.00000    7.000000   0.000000  
S2               17.50000   2.500000   1.00000    7.000000   0.000000  
S3               17.50000   2.500000   1.00000    7.000000   0.000000  
S4               17.50000   2.50000    1.00000    7.000000   0.000000  
S5               17.50000   2.50000    1.00000    7.000000   0.000000  
S6               17.50000   2.500000   1.000000   7.000000   0.000000  
S7               17.50000   2.500000   1.000000   7.000000   0.000000  
S8               17.50000   2.500000   1.000000   7.000000   0.000000  
S9               17.50000   2.500000   1.000000   7.000000   0.000000  
S10              17.5000    2.500000   1.000000   7.000000   0.000000  
S11              17.50000   2.500000   1.000000   7.000000   0.000000  
S12              17.50000   2.500000   1.000000   7.000000   0.000000  
S13              17.50000   2.500000   1.000000   7.000000   0.000000  
S14              17.50000   2.500000   1.000000   7.000000   0.000000  
S15              17.50000   2.500000   1.000000   7.000000   0.000000  
S16              17.50000   2.500000   1.000000   7.000000   0.000000  
S17              17.50000   2.500000   1.000000   7.000000   0.000000  
S18              17.50000   2.500000   1.000000   7.000000   0.000000  
S19              17.50000   2.500000   1.000000   7.000000   0.000000  
S20              17.50000   2.500000   1.000000   7.000000   0.000000  
S21              17.50000   2.50000    1.00000    7.000000   0.000000  
S22              17.50000   2.500000   1.000000   7.000000   0.000000  
S23              17.50000   2.500000   1.000000   7.000000   0.000000  
S25              17.50000   2.500000   1.000000   7.000000   0.000000  
S26              17.50000   2.500000   1.000000   7.000000   0.000000  
S27              17.50000   2.500000   1.000000   7.000000   0.000000  
S28              17.50000   2.500000   1.000000   7.000000   0.000000  
S29              17.50000   2.500000   1.000000   7.000000   0.000000  
S30              17.50000   2.500000   1.000000   7.000000   0.000000  

[JUNCTIONS]
;;Name           Elevation  MaxDepth   InitDepth  SurDepth   Aponded   
;;-------------- ---------- ---------- ---------- ---------- ----------
J1               11.500000  0.000000   0.000000   0.000000   0.000000  
J2               12.500000  0.000000   0.000000   0.000000   0.000000  
J3               12.700000  0.000000   0.000000   0.000000   0.000000  
J4               13.400000  0.000000   0.000000   0.000000   0.000000  
J5               14.300000  0.000000   0.000000   0.000000   0.000000  
J6               15.500000  0.000000   0.000000   0.000000   0.000000  
J7               23.066000  0.000000   0.000000   0.000000   0.000000  
J8               16.565000  0.000000   0.000000   0.000000   0.000000  
J9               15.45      0          0.000000   0.000000   0.000000  
J10              14.760000  0.000000   0.000000   0.000000   0.000000  
J11              14.200000  0.000000   0.000000   0.000000   0.000000  
J12              15.758000  0.000000   0.000000   0.000000   0.000000  
J13              17.459000  0.000000   0.000000   0.000000   0.000000  
J14              17.865000  0.000000   0.000000   0.000000   0.000000  
J15              21.547000  0.000000   0.000000   0.000000   0.000000  
J16              20.250000  0.000000   0.000000   0.000000   0.000000  
J17              22.857000  0.000000   0.000000   0.000000   0.000000  
J18              22.560000  0.000000   0.000000   0.000000   0.000000  
J19              23.898000  0.000000   0.000000   0.000000   0.000000  
J20              24.600000  0.000000   0.000000   0.000000   0.000000  
J21              27.750000  0.000000   0.000000   0.000000   0.000000  
J22              25.650000  0.000000   0.000000   0.000000   0.000000  
J23              26.250000  0.000000   0.000000   0.000000   0.000000  
J24              26.546000  0.000000   0.000000   0.000000   0.000000  
J25              29.574000  0.000000   0.000000   0.000000   0.000000  
J26              39.870000  0.000000   0.000000   0.000000   0.000000  
J27              31.654000  0.000000   0.000000   0.000000   0.000000  
J28              35.254000  0.000000   0.000000   0.000000   0.000000  
J29              32.564000  0.000000   0.000000   0.000000   0.000000  
J30              44.056000  0.000000   0.000000   0.000000   0.000000  
J31              49.104000  0.000000   0.000000   0.000000   0.000000  
J32              35.565000  0.000000   0.000000   0.000000   0.000000  
J33              19.200000  0.000000   0.000000   0.000000   0.000000  
J34              18.650000  0.000000   0.000000   0.000000   0.000000  
J35              17.786000  0.000000   0.000000   0.000000   0.000000  
J36              17.280000  0.000000   0.000000   0.000000   0.000000  

[OUTFALLS]
;;Name           Elevation  Type       Stage Data       Gated    Route To        
;;-------------- ---------- ---------- ---------------- -------- ----------------
OUT1             16.654000  FREE                        NO                       
OUT2             10.250000  FREE                        NO                       

[CONDUITS]
;;Name           From Node        To Node          Length     Roughness  InOffset   OutOffset  InitFlow   MaxFlow   
;;-------------- ---------------- ---------------- ---------- ---------- ---------- ---------- ---------- ----------
C1               J1               OUT2             225.000000 0.018      0.000000   0.000000   0.000000   0.000000  
C2               J2               J1               445.000000 0.012500   0.000000   0.000000   0.000000   0.000000  
C3               J3               J2               135.000000 0.012500   0.000000   0.000000   0.000000   0.000000  
C4               J4               J3               126.000000 0.012500   0.000000   0.000000   0.000000   0.000000  
C5               J5               J4               69.000000  0.012500   0.000000   0.000000   0.000000   0.000000  
C6               J6               J5               252.000000 0.012500   0.000000   0.000000   0.000000   0.000000  
C7               J33              J34              102.000000 0.012500   0.000000   0.000000   0.000000   0.000000  
C8               J34              J35              150.000000 0.012500   0.000000   0.000000   0.000000   0.000000  
C9               J35              J36              157.000000 0.012500   0.000000   0.000000   0.000000   0.000000  
C10              J36              OUT1             258.000000 0.012500   0.000000   0.000000   0.000000   0.000000  
C11              J11              J4               60.000000  0.012500   0.000000   0.000000   0.000000   0.000000  
C12              J10              J11              60.000000  0.020      0.000000   0.000000   0.000000   0.000000  
C13              J10              J5               105.000000 0.020      0.000000   0.000000   0.000000   0.000000  
C14              J9               J10              152.000000 0.01250000 0.000000   0.000000   0.000000   0.000000  
C15              J12              J10              132.000000 0.012500   0.000000   0.000000   0.000000   0.000000  
C16              J8               J9               100.000000 0.012500   0.000000   0.000000   0.000000   0.000000  
C17              J7               J8               210.000000 0.012500   0.000000   0.000000   0.000000   0.000000  
C18              J8               J6               127.000000 0.012500   0.000000   0.000000   0.000000   0.000000  
C19              J13              J8               181.000000 0.012500   0.000000   0.000000   0.000000   0.000000  
C20              J13              J9               205.000000 0.012500   0.000000   0.000000   0.000000   0.000000  
C21              J14              J13              94.000000  0.012500   0.000000   0.000000   0.000000   0.000000  
C22              J15              J14              203.000000 0.012500   0.000000   0.000000   0.000000   0.000000  
C23              J16              J14              65.000000  0.025      0.000000   0.000000   0.000000   0.000000  
C24              J18              J15              102.000000 0.012500   0.000000   0.000000   0.000000   0.000000  
C25              J18              J16              173.000000 0.015      0.000000   0.000000   0.000000   0.000000  
C26              J17              J16              172.000000 0.012500   0.000000   0.000000   0.000000   0.000000  
C27              J19              J18              44.000000  0.020      0.000000   0.000000   0.000000   0.000000  
C28              J20              J19              58.000000  0.0125     0.000000   0.000000   0.000000   0.000000  
C29              J22              J19              327.000000 0.012500   0.000000   0.000000   0.000000   0.000000  
C30              J21              J20              337.000000 0.020      0.000000   0.000000   0.000000   0.000000  
C31              J23              J22              87.000000  0.012500   0.000000   0.000000   0.000000   0.000000  
C32              J24              J23              95.000000  0.012500   0.000000   0.000000   0.000000   0.000000  
C33              J25              J21              110.000000 0.012500   0.000000   0.000000   0.000000   0.000000  
C34              J26              J25              603.000000 0.012500   0.000000   0.000000   0.000000   0.000000  
C35              J27              J25              138.000000 0.015      0.000000   0.000000   0.000000   0.000000  
C36              J28              J27              334.000000 0.012500   0.000000   0.000000   0.000000   0.000000  
C37              J29              J27              378.000000 0.012500   0.000000   0.000000   0.000000   0.000000  
C38              J30              J29              285.000000 0.012500   0.000000   0.000000   0.000000   0.000000  
C39              J32              J29              229.000000 0.012500   0.000000   0.000000   0.000000   0.000000  
C40              J31              J32              225.000000 0.012500   0.000000   0.000000   0.000000   0.000000  
C41              J31              J30              218.000000 0.012500   0.000000   0.000000   0.000000   0.000000  
C42              J20              J17              152        0.025      0          0          0          0         

[XSECTIONS]
;;Link           Shape        Geom1            Geom2      Geom3      Geom4      Barrels    Culvert   
;;-------------- ------------ ---------------- ---------- ---------- ---------- ---------- ----------
C1               RECT_OPEN    0.70000          1.000000   0          0          1          0         
C2               RECT_OPEN    0.7000000        1.000000   0          0          1          0         
C3               RECT_OPEN    0.70000          1.000000   0          0          1          0         
C4               RECT_OPEN    0.7000000        1.0000000  0          0          1          0         
C5               RECT_OPEN    0.7000000        1.0000000  0          0          1          0         
C6               RECT_OPEN    0.700000         1.000000   0          0          1          0         
C7               RECT_OPEN    0.700000         1.000000   0          0          1          0         
C8               RECT_OPEN    0.700000         1.000000   0          0          1          0         
C9               RECT_OPEN    0.700000         1.000000   0          0          1          0         
C10              RECT_OPEN    0.700000         1.000000   0.000000   0.000000   1          0         
C11              RECT_OPEN    0.700000         1.000000   0.000000   0.000000   1          0         
C12              RECT_OPEN    0.600000         0.500000   0.000000   0.000000   1          0         
C13              RECT_OPEN    1.000000         0.800000   0          0          1          0         
C14              RECT_OPEN    1.000000         0.800000   0.000000   0.000000   1          0         
C15              RECT_OPEN    1.000000         0.400000   0.000000   0.000000   1          0         
C16              RECT_OPEN    1.000000         0.800000   0.000000   0.000000   1          0         
C17              RECT_OPEN    1.000000         0.800000   0.000000   0.000000   1          0         
C18              RECT_OPEN    0.550000         0.430000   0.000000   0.000000   1          0         
C19              RECT_OPEN    1.000000         0.350000   0.000000   0.000000   1          0         
C20              RECT_OPEN    1.000000         0.750000   0.000000   0.000000   1          0         
C21              RECT_OPEN    1.000000         0.750000   0.000000   0.000000   1          0         
C22              RECT_OPEN    1.000000         0.880000   0.000000   0.000000   1          0         
C23              RECT_OPEN    1.000000         0.600000   0.000000   0.000000   1          0         
C24              RECT_OPEN    0.600000         0.600000   0.000000   0.000000   1          0         
C25              RECT_OPEN    0.600000         0.700000   0.000000   0.000000   1          0         
C26              RECT_OPEN    1.000000         0.600000   0.000000   0.000000   1          0         
C27              RECT_OPEN    1.000000         1.4        0          0          1          0         
C28              RECT_OPEN    1.400000         0.700000   0.000000   0.000000   1          0         
C29              RECT_OPEN    0.700000         0.700000   0.000000   0.000000   1          0         
C30              RECT_OPEN    1.000000         0.700000   0.000000   0.000000   1          0         
C31              RECT_OPEN    0.700000         0.700000   0.000000   0.000000   1          0         
C32              RECT_OPEN    0.700000         0.700000   0.000000   0.000000   1          0         
C33              RECT_OPEN    1.000000         0.700000   0.000000   0.000000   1          0         
C34              RECT_OPEN    0.600000         0.700000   0.000000   0.000000   1          0         
C35              RECT_OPEN    1.000000         0.600000   0.000000   0.000000   1          0         
C36              RECT_OPEN    0.600000         0.700000   0.000000   0.000000   1          0         
C37              RECT_OPEN    1.000000         1.000000   0.000000   0.000000   1          0         
C38              RECT_OPEN    0.800000         0.850000   0.000000   0.000000   1          0         
C39              RECT_OPEN    1.000000         1.000000   0.000000   0.000000   1          0         
C40              RECT_OPEN    0.800000         0.850000   0.000000   0.000000   1          0         
C41              RECT_OPEN    0.800000         0.850000   0.000000   0.000000   1          0         
C42              RECT_OPEN    1                1          0          0          1                    

[LOSSES]
;;Link           Kentry     Kexit      Kavg       Flap Gate  Seepage   
;;-------------- ---------- ---------- ---------- ---------- ----------
C1               0.000000   0.000000   0.000000   NO         0.000000  
C2               0.000000   0.000000   0.000000   NO         0.000000  
C3               0.000000   0.000000   0.000000   NO         0.000000  
C4               0.000000   0.000000   0.000000   NO         0.000000  
C5               0.000000   0.000000   0.000000   NO         0.000000  
C6               0.000000   0.000000   0.000000   NO         0.000000  
C7               0.000000   0.000000   0.000000   NO         0.000000  
C8               0.000000   0.000000   0.000000   NO         0.000000  
C9               0.000000   0.000000   0.000000   NO         0.000000  
C10              0.000000   0.000000   0.000000   NO         0.000000  
C11              0.000000   0.000000   0.000000   NO         0.000000  
C12              0.000000   0.000000   0.000000   NO         0.000000  
C13              0.000000   0.000000   0.000000   NO         0.000000  
C14              0.000000   0.000000   0.000000   NO         0.000000  
C15              0.000000   0.000000   0.000000   NO         0.000000  
C16              0.000000   0.000000   0.000000   NO         0.000000  
C17              0.000000   0.000000   0.000000   NO         0.000000  
C18              0.000000   0.000000   0.000000   NO         0.000000  
C19              0.000000   0.000000   0.000000   NO         0.000000  
C20              0.000000   0.000000   0.000000   NO         0.000000  
C21              0.000000   0.000000   0.000000   NO         0.000000  
C22              0.000000   0.000000   0.000000   NO         0.000000  
C23              0.000000   0.000000   0.000000   NO         0.000000  
C24              0.000000   0.000000   0.000000   NO         0.000000  
C25              0.000000   0.000000   0.000000   NO         0.000000  
C26              0.000000   0.000000   0.000000   NO         0.000000  
C27              0          0          0          NO         0.000000  
C28              0.000000   0.000000   0.000000   NO         0.000000  
C29              0.000000   0.000000   0.000000   NO         0.000000  
C30              0.000000   0.000000   0.000000   NO         0.000000  
C31              0.000000   0.000000   0.000000   NO         0.000000  
C32              0.000000   0.000000   0.000000   NO         0.000000  
C33              0.000000   0.000000   0.000000   NO         0.000000  
C34              0.000000   0.000000   0.000000   NO         0.000000  
C35              0.000000   0.000000   0.000000   NO         0.000000  
C36              0.000000   0.000000   0.000000   NO         0.000000  
C37              0.000000   0.000000   0.000000   NO         0.000000  
C38              0.000000   0.000000   0.000000   NO         0.000000  
C39              0.000000   0.000000   0.000000   NO         0.000000  
C40              0.000000   0.000000   0.000000   NO         0.000000  
C41              0.000000   0.000000   0.000000   NO         0.000000  

[CONTROLS]
;;Control Rules
;;Control Rules
;;Control Rules
;;Control Rules
;;Control Rules
;;Control Rules
;;Control Rules
;;Control Rules
;;Control Rules
;;Control Rules
;;Control Rules
;;Control Rules
;;Control Rules
;;Control Rules
;;Control Rules
;;Control Rules
;;Control Rules
;;Control Rules
;;Control Rules
;;Control Rules
;;Control Rules
;;Control Rules
;;Control Rules
;;Control Rules
;;Control Rules
;;Control Rules
;;Control Rules
;;Control Rules
;;Control Rules
;;Control Rules
;;Control Rules
;;Control Rules
;;Control Rules
;;Control Rules
;;Control Rules
;;Control Rules
;;Control Rules







































[CURVES]
;;Name           Type       X-Value    Y-Value   
;;-------------- ---------- ---------- ----------
KOLAMRETENSI1    Storage    0.000000   16000     
KOLAMRETENSI1               0.500000   16000     
KOLAMRETENSI1               1.000000   16000     
KOLAMRETENSI1               1.500000   16000     
KOLAMRETENSI1               2.000000   16000     
KOLAMRETENSI1               2.500000   16000     
KOLAMRETENSI1               3.000000   16000     
;
KOLAMRETENSI2    Storage    0.000000   40000.000000
KOLAMRETENSI2               0.500000   40000.000000
KOLAMRETENSI2               1.000000   40000.0000000
KOLAMRETENSI2               1.500000   40000.000000
KOLAMRETENSI2               2.000000   40000.000000
KOLAMRETENSI2               2.500000   40000.0000000
KOLAMRETENSI2               3.000000   40000.0000000
;
POND1            STORAGE    0.000000   18000.000000
POND1                       0.500000   18000.000000
POND1                       1.000000   18000.000000
POND1                       1.500000   18000.000000
POND1                       2.000000   18000.000000
POND1                       2.500000   18000.000000
POND1                       3.000000   18000.000000
POND1                       3.500000   18000.000000
;
POND2            STORAGE    0.000000   30000.000000
POND2                       0.500000   30000.000000
POND2                       1.000000   30000.000000
POND2                       1.500000   30000.000000
POND2                       2.000000   30000.000000
POND2                       2.500000   30000.000000
POND2                       3.000000   30000.000000
POND2                       3.500000   30000.000000
POND2                       4.000000   30000.000000
POND2                       4.500000   30000.000000
POND2                       5.000000   30000.000000
POND2                       5.500000   30000.000000
;
POND3            STORAGE    0.000000   40000.000000
POND3                       0.500000   40000.000000
POND3                       1.000000   40000.000000
POND3                       1.500000   40000.000000
POND3                       2.000000   40000.000000
POND3                       2.500000   40000.000000
POND3                       3.000000   40000.000000
POND3                       3.500000   40000.000000
POND3                       4.000000   40000.000000
POND3                       4.500000   40000.000000
POND3                       5.000000   40000.000000
;
POND4            STORAGE    0.500000   5000.000000
POND4                       1.000000   5000.000000
POND4                       1.500000   5000.000000
POND4                       2.000000   5000.000000
;
POND5            STORAGE    0.000000   25000.000000
POND5                       0.500000   25000.000000
POND5                       1.000000   25000.000000
POND5                       1.500000   25000.000000
POND5                       2.000000   25000.000000
POND5                       2.500000   25000.000000
POND5                       3.000000   25000.000000
;
POND6            STORAGE    0.000000   20000.000000
POND6                       0.500000   20000.000000
POND6                       1.000000   20000.000000
POND6                       1.500000   20000.000000
POND6                       2.000000   20000.000000
POND6                       2.500000   20000.000000
POND6                       3.000000   20000.000000
POND6                       3.500000   20000.000000
POND6                       4.000000   20000.000000
;
PONDS2           STORAGE    0.000000   50000.000000
PONDS2                      0.500000   50000.000000
PONDS2                      1.000000   50000.000000
PONDS2                      1.500000   50000.000000
PONDS2                      2.000000   50000.000000