[TITLE]
;;Project Title/Notes
Scenario Run :  BASE
 SW 1 0 20A1 'EXTRAN USER''S MANUAL EXAMPLE 1'A1 'baseline extran model from

[OPTIONS]
;;Option             Value
FLOW_UNITS           CFS
INFILTRATION         MODIFIED_HORTON
FLOW_ROUTING         DYNWAVE
LINK_OFFSETS         DEPTH
MIN_SLOPE            0
ALLOW_PONDING        NO
SKIP_STEADY_STATE    NO

START_DATE           04/24/2008
START_TIME           00:00:00
REPORT_START_DATE    04/24/2008
REPORT_START_TIME    00:00:00
END_DATE             04/24/2008
END_TIME             06:00:00
SWEEP_START          01/01
SWEEP_END            12/31
DRY_DAYS             0.000000
REPORT_STEP          01:40:00
WET_STEP             00:15:00
DRY_STEP             01:00:00
ROUTING_STEP         0:01:00 

INERTIAL_DAMPING     NONE
NORMAL_FLOW_LIMITED  SLOPE
FORCE_MAIN_EQUATION  H-W
VARIABLE_STEP        0.75
LENGTHENING_STEP     0
MIN_SURFAREA         12.566000
MAX_TRIALS           4
HEAD_TOLERANCE       0.005000
SYS_FLOW_TOL         5
LAT_FLOW_TOL         5
MINIMUM_STEP         0.5
THREADS              1

[EVAPORATION]
;;Data Source    Parameters
;;-------------- ----------------
CONSTANT         0.100000
DRY_ONLY         NO

[JUNCTIONS]
;;Name           Elevation  MaxDepth   InitDepth  SurDepth   Aponded   
;;-------------- ---------- ---------- ---------- ---------- ----------
10309            101.600000 9.400000   0.000000   0.000000   0.000000  
15009            111.500000 13.500000  0.000000   0.000000   0.000000  
16009            102.000000 18.000000  0.000000   0.000000   0.000000  
16109            102.800000 22.200000  0.000000   0.000000   0.000000  
; *    JUNCTION DATA example
; first line
; 1
; second line
; 2
; third line
; 3
; fourth line
; 4
80408            124.600000 13.400000  0.000000   0.000000   0.000000  
80608            118.300000 16.700000  0.000000   0.000000   0.000000  
81009            128.200000 8.800000   0.000000   0.000000   0.000000  
82309            112.300000 42.700000  0.000000   0.000000   0.000000  
CDT-369          117.500000 12.500000  0.000000   0.000000   0.000000  

[OUTFALLS]
;;Name           Elevation  Type       Stage Data       Gated    Route To        
;;-------------- ---------- ---------- ---------------- -------- ----------------
10208            89.900000  FREE                        NO                       

[CONDUITS]
;;Name           From Node        To Node          Length     Roughness  InOffset   OutOffset  InitFlow   MaxFlow   
;;-------------- ---------------- ---------------- ---------- ---------- ---------- ---------- ---------- ----------
; 1111111111111111111111111111111111111111
; 111111111111111111111111111111111111111111111111111111111111
; 111111111111111111111111111111111111111111111111111111111111
; 111111111111111111111111111111111111111111111111111111111111
; 111111111112222222222222222222222222222222222222222222222222
; 222222222222222222222222222222222222222222222222222222222222
; 222222222222222222222222222222222222222222222222222222222222
; 222222222222222222222222222222222222222222222222222222222222
; 222222222222222222222222222223333333333333333333333333333333
; 333333333333333333333333333333333333333333333333333333333333
; 333444444444444444444444444444444444444444444444444444444444
; 444444444444444444444444444444444444444444444444444444444444
; 44444444444444444444444444444444444444444444444444
; 444444444444444444444445555555555555555555555555555555555555
; 555555555555555555555556666666666666666666666666666666666666
; 666666666666666666666666666777777777777777777777777777777777
; 7777777777777777777777777777777777777
1030             10309            10208            4500.000000 0.016000   0.000000   0.000000   0.000000   0.000000  
1570             15009            16009            5000.000000 0.015400   0.000000   0.000000   0.000000   0.000000  
1600             16009            16109            500.000000 0.015000   0.000000   0.000000   0.000000   0.000000  
1602             82309            16109            5000.000000 0.034000   0.000000   0.000000   0.000000   0.000000  
1630             16009            10309            300.000000 0.015000   0.000000   0.000000   0.000000   0.000000  
8040             80408            80608            1800.000000 0.015000   0.000000   0.000000   0.000000   0.000000  
8060             80608            82309            2075.000000 0.015000   0.000000   2.200000   0.000000   0.000000  
8130             CDT-369          15009            3500.000000 0.015000   0.000000   0.000000   0.000000   0.000000  
CDT-369          81009            CDT-369          5100.000000 0.015000   0.000000   0.000000   0.000000   0.000000  

[XSECTIONS]
;;Link           Shape        Geom1            Geom2      Geom3      Geom4      Barrels    Culvert   
;;-------------- ------------ ---------------- ---------- ---------- ---------- ---------- ----------
1030             TRIANGULAR   9.000000         54.000000  0.000000   0.000000   1          0         
1570             CIRCULAR     5.500000         0.000000   0.000000   0.000000   1          0         
1600             CIRCULAR     6.000000         0.000000   0.000000   0.000000   1          0         
1602             CIRCULAR     5.000000         0.000000   0.000000   0.000000   1          0         
1630             TRIANGULAR   9.000000         54.000000  0.000000   0.000000   1          0         
8040             CIRCULAR     4.000000         0.000000   0.000000   0.000000   1          0         
8060             CIRCULAR     4.000000         0.000000   0.000000   0.000000   1          0         
8130             CIRCULAR     4.500000         0.000000   0.000000   0.000000   1          0         
CDT-369          CIRCULAR     4.500000         0.000000   0.000000   0.000000   1          0         

[LOSSES]
;;Link           Kentry     Kexit      Kavg       Flap Gate  Seepage   
;;-------------- ---------- ---------- ---------- ---------- ----------
1030             0.000000   0.000000   0.000000   NO         1.000000  
1570             0.000000   0.000000   0.000000   NO         1.000000  
1600             0.000000   0.000000   0.000000   NO         1.000000  
1602             0.000000   0.000000   0.000000   NO         1.000000  
1630             0.000000   0.000000   0.000000   NO         1.000000  
8040             0.000000   0.000000   0.000000   NO         1.000000  
8060             0.000000   0.000000   0.000000   NO         1.000000  
8130             0.000000   0.000000   0.000000   NO         1.000000  
CDT-369          0.000000   0.000000   0.000000   NO         1.000000  

[CONTROLS]
;;Control Rules
;;Control Rules
;;Control Rules





[INFLOWS]
;;Node           Constituent      Time Series      Type     Mfactor  Sfactor  Baseline Pattern
;;-------------- ---------------- ---------------- -------- -------- -------- -------- --------
80408            FLOW             INFLOWAT80408    FLOW     1.0      0.000000 0.000000
81009            FLOW             INFLOWAT81009    FLOW     1.0      1.000000         
82309            FLOW             INFLOWAT82309    FLOW     1.0      1.000000         

[TIMESERIES]
;;Name           Date       Time       Value     
;;-------------- ---------- ---------- ----------
INFLOWAT82309    4/24/2008  00:00      0.000000  
INFLOWAT82309               00:15      40.000000 
INFLOWAT82309               03:00      40.000000 
INFLOWAT82309               03:15      0.000000  
INFLOWAT82309               12:00      0.000000  
;
INFLOWAT80408    4/24/2008  00:00      0.000000  
INFLOWAT80408               00:15      45.000000 
INFLOWAT80408               03:00      45.000000 
INFLOWAT80408               03:15      0.000000  
INFLOWAT80408               12:00      0.000000  
;
INFLOWAT81009    4/24/2008  00:00      0.000000  
INFLOWAT81009               00:15      50.000000 
INFLOWAT81009               03:00      50.000000 
INFLOWAT81009               03:15      0.000000  
INFLOWAT81009               12:00      0.000000  
;
HOURLYPATTERN    02/22/2002 00:00      0.500000  
HOURLYPATTERN               00:15      1.000000  
HOURLYPATTERN               00:30      2.000000  
HOURLYPATTERN               00:45      1.000000  
HOURLYPATTERN               01:00      0.500000  
HOURLYPATTERN               01:15      1.000000  
HOURLYPATTERN               01:30      2.000000  
HOURLYPATTERN               01:45      1.000000  
HOURLYPATTERN               02:00      0.500000  
HOURLYPATTERN               02:15      1.000000  
HOURLYPATTERN               02:30      2.000000  
HOURLYPATTERN               02:45      1.000000  
HOURLYPATTERN               03:00      0.500000  
HOURLYPATTERN               03:15      1.000000  
HOURLYPATTERN               03:30      2.000000  
HOURLYPATTERN               03:45      1.000000  
HOURLYPATTERN               04:00      0.500000  
HOURLYPATTERN               04:15      1.000000  
HOURLYPATTERN               04:30      2.000000  
HOURLYPATTERN               04:45      1.000000  
HOURLYPATTERN               05:00      0.500000  
HOURLYPATTERN               05:15      1.000000  
HOURLYPATTERN               05:30      2.000000  
HOURLYPATTERN               05:45      1.000000  
HOURLYPATTERN               06:00      0.500000  
HOURLYPATTERN               06:15      1.000000  
HOURLYPATTERN               06:30      2.000000  
HOURLYPATTERN               06:45      1.000000  

[PATTERNS]
;;Name           Type       Multipliers
;;-------------- ---------- -----------
HOURLY           HOURLY     1.000000 1.000000 1.000000 1.000000 1.000000 1.000000
HOURLY                      1.000000 1.000000 1.000000 1.000000 1.000000 1.000000
HOURLY                      1.000000 1.000000 1.000000 1.000000 1.000000 1.000000
HOURLY                      1.000000 1.000000 1.000000 1.000000 1.000000 1.000000

[REPORT]
;;Reporting Options
INPUT      YES
CONTROLS   NO
SUBCATCHMENTS ALL
NODES ALL
LINKS ALL

[TAGS]

[MAP]
DIMENSIONS -1113.687 2165.261 10650.527 7792.630
Units      None

[COORDINATES]
;;Node           X-Coord            Y-Coord           
;;-------------- ------------------ ------------------
10309            389.470            2421.050          
15009            4978.950           2421.050          
16009            2494.740           2421.050          
16109            2494.740           7536.840          
80408            10115.790          7536.840          
80608            7463.160           7536.840          
81009            9989.470           2421.050          
82309            4957.890           7536.840          
CDT-369          7568.420           2421.050          
10208            -578.950           4947.370          

[VERTICES]
;;Link           X-Coord            Y-Coord           
;;-------------- ------------------ ------------------

