[TITLE]
;;Project Title/Notes


[OPTIONS]
;;Option             Value
FLOW_UNITS           CMS
INFILTRATION         GREEN_AMPT
FLOW_ROUTING         DYNWAVE
LINK_OFFSETS         DEPTH
MIN_SLOPE            0
ALLOW_PONDING        NO
SKIP_STEADY_STATE    NO

START_DATE           01/01/1917
START_TIME           00:00:00
REPORT_START_DATE    01/01/1917
REPORT_START_TIME    00:00:00
END_DATE             01/01/1925
END_TIME             00:00:00
SWEEP_START          1/1
SWEEP_END            12/31
DRY_DAYS             0
REPORT_STEP          12:00:00
WET_STEP             00:30:00
DRY_STEP             01:00:00
ROUTING_STEP         6:00:00 

INERTIAL_DAMPING     PARTIAL
NORMAL_FLOW_LIMITED  BOTH
FORCE_MAIN_EQUATION  H-W
VARIABLE_STEP        0.00
LENGTHENING_STEP     0
MIN_SURFAREA         12
MAX_TRIALS           0
HEAD_TOLERANCE       0
SYS_FLOW_TOL         5
LAT_FLOW_TOL         5
MINIMUM_STEP         0.5
THREADS              1

[EVAPORATION]
;;Data Source    Parameters
;;-------------- ----------------
MONTHLY          1      1      2      1      2      2      2      2      1      1      1      1     
DRY_ONLY         NO

[RAINGAGES]
;;Name           Format    Interval SCF      Source    
;;-------------- --------- ------ ------ ----------
RG1              INTENSITY 0:01     1.0      TIMESERIES none            

[SUBCATCHMENTS]
;;Name           Rain Gage        Outlet           Area     %Imperv  Width    %Slope   CurbLen  SnowPack        
;;-------------- ---------------- ---------------- -------- -------- -------- -------- -------- ----------------
S1               RG1              Spruce_lake      5        25       500      0.5      0                        

[SUBAREAS]
;;Subcatchment   N-Imperv   N-Perv     S-Imperv   S-Perv     PctZero    RouteTo    PctRouted 
;;-------------- ---------- ---------- ---------- ---------- ---------- ---------- ----------
S1               0.02       0.055      0.5        2          25         OUTLET    

[INFILTRATION]
;;Subcatchment   Suction    Ksat       IMD       
;;-------------- ---------- ---------- ----------
S1               8.0        1.0        0.3       

[JUNCTIONS]
;;Name           Elevation  MaxDepth   InitDepth  SurDepth   Aponded   
;;-------------- ---------- ---------- ---------- ---------- ----------
J1               1          0          0          0          0         

[OUTFALLS]
;;Name           Elevation  Type       Stage Data       Gated    Route To        
;;-------------- ---------- ---------- ---------------- -------- ----------------
O4               -1         FREE                        NO                       
O6               0          FREE                        NO                       

[STORAGE]
;;Name           Elev.    MaxDepth   InitDepth  Shape      Curve Name/Params            N/A      Fevap    Psi      Ksat     IMD     
;;-------------- -------- ---------- ----------- ---------- ---------------------------- -------- --------          -------- --------
;Assumed no low level discharge
Spruce_lake      44.5     25         17         TABULAR    Spruce_Lake                  4053571.429 0       
Musquash         2        30         5          TABULAR    East_Musquash                0        1       

[CONDUITS]
;;Name           From Node        To Node          Length     Roughness  InOffset   OutOffset  InitFlow   MaxFlow   
;;-------------- ---------------- ---------------- ---------- ---------- ---------- ---------- ---------- ----------
C3               J1               O4               100        0.055      0          0          0          0         

[PUMPS]
;;Name           From Node        To Node          Pump Curve       Status   Sartup Shutoff 
;;-------------- ---------------- ---------------- ---------------- ------ -------- --------
PMusquash        Musquash         Spruce_lake      Musquash_pump    OFF      0        0       

[ORIFICES]
;;Name           From Node        To Node          Type         Offset     Qcoeff     Gated    CloseTime 
;;-------------- ---------------- ---------------- ------------ ---------- ---------- -------- ----------
OR2              Musquash         J1               SIDE         0          0.62       NO       0         

[WEIRS]
;;Name           From Node        To Node          Type         CrestHt    Qcoeff     Gated    EndCon   EndCoeff   Surcharge  RoadWidth  RoadSurf  
;;-------------- ---------------- ---------------- ------------ ---------- ---------- -------- -------- ---------- ---------- ---------- ----------
W_spruce         Spruce_lake      O6               TRANSVERSE   16.6       1.7        NO       0        8          YES       
W_musquash       Musquash         J1               TRANSVERSE   5          1.8        NO       0        2          YES       

[XSECTIONS]
;;Link           Shape        Geom1            Geom2      Geom3      Geom4      Barrels    Culvert   
;;-------------- ------------ ---------------- ---------- ---------- ---------- ---------- ----------
C3               TRAPEZOIDAL  5                2          3          3          1                    
OR2              CIRCULAR     0.8              0          0          0
W_spruce         RECT_OPEN    2                18         0          0         
W_musquash       RECT_OPEN    5.2              20         0          0         

[CONTROLS]
RULE HighL

 IF NODE Spruce_Lake DEPTH > 16.9

 THEN WEIR W_Spruce SETTING = 1

RULE LowL

 IF NODE Spruce_Lake DEPTH < 16.6

 THEN WEIR W_Spruce SETTING = 0.85

RULE PSquashON

 IF NODE Spruce_Lake DEPTH < 15.7

 THEN PUMP PMusquash STATUS = ON

RULE PSquashOFF

 IF NODE Spruce_Lake DEPTH > 16.5

 THEN PUMP PMusquash STATUS = OFF


;RULE PJan

; IF LINK C4 FLOW > 1.8
; AND LINK C4 FLOW < 1.9
; THEN PUMP PSpruce1 STATUS = ON
; AND PUMP PSpruce2 STATUS = OFF
; AND PUMP PSpruce3 STATUS = OFF
; AND PUMP PSpruce4 STATUS = OFF
; AND PUMP PSpruce5 STATUS = OFF
; AND PUMP PSpruce6 STATUS = OFF
; AND PUMP PSpruce7 STATUS = OFF

;RULE PFeb

; IF LINK C4 FLOW < 1.3
; AND PUMP PSpruce1 STATUS = ON
; THEN PUMP PSpruce1 STATUS = OFF
 ;AND PUMP PSpruce2 STATUS = ON
; AND PUMP PSpruce3 STATUS = OFF
 ;AND PUMP PSpruce4 STATUS = OFF
; AND PUMP PSpruce5 STATUS = OFF
; AND PUMP PSpruce6 STATUS = OFF
; AND PUMP PSpruce7 STATUS = OFF

;RULE PMar

; IF LINK C4 FLOW > 3.5
; AND LINK C4 FLOW < 3.7
; THEN PUMP PSpruce1 STATUS = OFF
; AND PUMP PSpruce2 STATUS = OFF
; AND PUMP PSpruce3 STATUS = ON
; AND PUMP PSpruce4 STATUS = ON
; AND PUMP PSpruce5 STATUS = OFF
; AND PUMP PSpruce6 STATUS = OFF
; AND PUMP PSpruce7 STATUS = OFF

;RULE PApr

; IF LINK C4 FLOW > 5.9
; AND LINK C4 FLOW < 6.1
; THEN PUMP PSpruce1 STATUS = OFF
; AND PUMP PSpruce2 STATUS = OFF
; AND PUMP PSpruce3 STATUS = OFF
; AND PUMP PSpruce4 STATUS = ON
; AND PUMP PSpruce5 STATUS = OFF
; AND PUMP PSpruce6 STATUS = OFF
; AND PUMP PSpruce7 STATUS = OFF

;RULE PAug

; IF LINK C4 FLOW > 8.3
; AND LINK C4 FLOW < 8.5
; THEN PUMP PSpruce1 STATUS = OFF
; AND PUMP PSpruce2 STATUS = OFF
 ;AND PUMP PSpruce3 STATUS = OFF
; AND PUMP PSpruce4 STATUS = OFF
; AND PUMP PSpruce5 STATUS = ON
; AND PUMP PSpruce6 STATUS = OFF
; AND PUMP PSpruce7 STATUS = OFF

;RULE PJun

 ;IF LINK C4 FLOW > 10.0
 ;AND LINK C4 FLOW < 10.2
; THEN PUMP PSpruce1 STATUS = OFF
; AND PUMP PSpruce2 STATUS = OFF
; AND PUMP PSpruce3 STATUS = OFF
; AND PUMP PSpruce4 STATUS = OFF
; AND PUMP PSpruce5 STATUS = ON
; AND PUMP PSpruce6 STATUS = ON
; AND PUMP PSpruce7 STATUS = OFF

;RULE PJul

; IF LINK C4 FLOW > 10.7
; AND LINK C4 FLOW < 10.9
; THEN PUMP PSpruce1 STATUS = OFF
; AND PUMP PSpruce2 STATUS = OFF
; AND PUMP PSpruce3 STATUS = OFF
; AND PUMP PSpruce4 STATUS = OFF
; AND PUMP PSpruce5 STATUS = OFF
; AND PUMP PSpruce6 STATUS = OFF
; AND PUMP PSpruce7 STATUS = ON

























































[INFLOWS]
;;Node           Constituent      Time Series      Type     Mfactor  Sfactor  Baseline Pattern
;;-------------- ---------------- ---------------- -------- -------- -------- -------- --------
Spruce_lake      FLOW             Spruce_in        FLOW     1.0      1.0              

[DWF]
;;Node           Constituent      Baseline   Patterns  
;;-------------- ---------------- ---------- ----------
Spruce_lake      FLOW             0.107      "inflow_pattern"
Musquash         FLOW             10         "max_const"

[CURVES]
;;Name           Type       X-Value    Y-Value   
;;-------------- ---------- ---------- ----------
Musquash_pump    Pump1      0          0         
Musquash_pump               10         1.3       
Musquash_pump               1000       1.3       
;
Spruce_pump1     Pump1      0          0         
Spruce_pump1                10         0.096976888
Spruce_pump1                10000      0.096976888
;
Spruce_pump2     Pump1      0          0         
Spruce_pump2                10         0.063140172
Spruce_pump2                10000      0.063140172
;
Spruce_pump3     Pump1      0          0         
Spruce_pump3                10         0.189420516
Spruce_pump3                10000      0.189420516
;
Spruce_pump4     Pump1      0          0         
Spruce_pump4                10         0.31570086
Spruce_pump4                10000      0.31570086
;
Spruce_pump5     Pump1      0          0         
Spruce_pump5                10         0.441981204
Spruce_pump5                10000      0.441981204
;
Spruce_pump6     Pump1      0          0         
Spruce_pump6                10         0.534424832
Spruce_pump6                10000      0.534424832
;
Spruce_pump7     Pump1      0          0         
Spruce_pump7                10         0.568261548
Spruce_pump7                10000      0.568261548
;
;Copied from the WG report 1988
East_Musquash    Storage    0          0         
East_Musquash               3.2        13875000  
East_Musquash               5.2        25400000  
;
Spruce_Lake      Storage    0          0         
Spruce_Lake                 7.6        407202.2161
Spruce_Lake                 10.7       1120757.501
Spruce_Lake                 13.7       3106031.502
Spruce_Lake                 16.8       5226973.684
Spruce_Lake                 17.8       5889562.389
Spruce_Lake                 19.8       7307017.544

[TIMESERIES]
;;Name           Date       Time       Value     
;;-------------- ---------- ---------- ----------
;prorated from Lepreau to Spruce - minus Demands !
Spruce_in        12/01/1916 1:00:00    0.507620503
Spruce_in        12/02/1916 1:00:00    0.580172804
Spruce_in        12/03/1916 1:00:00    0.531520085
Spruce_in        12/04/1916 1:00:00    0.519570294
Spruce_in        12/05/1916 1:00:00    0.507620503
Spruce_in        12/06/1916 1:00:00    0.676624687
Spruce_in        12/07/1916 1:00:00    0.776490796
Spruce_in        12/08/1916 1:00:00    1.186197909
Spruce_in        12/09/1916 1:00:00    1.126448955
Spruce_in        12/10/1916 1:00:00    0.921595399
Spruce_in        12/11/1916 1:00:00    0.81916862
Spruce_in        12/12/1916 1:00:00    1.066700001
Spruce_in        12/13/1916 1:00:00    1.075235566
Spruce_in        12/14/1916 1:00:00    1.13498452
Spruce_in        12/15/1916 1:00:00    1.066700001
Spruce_in        12/16/1916 1:00:00    1.006951047
Spruce_in        12/17/1916 1:00:00    0.938666528
Spruce_in        12/18/1916 1:00:00    0.878917574
Spruce_in        12/19/1916 1:00:00    0.725277407
Spruce_in        12/20/1916 1:00:00    0.776490796
Spruce_in        12/21/1916 1:00:00    0.81916862
Spruce_in        12/22/1916 1:00:00    1.006951047
Spruce_in        12/23/1916 1:00:00    1.766616319
Spruce_in        12/24/1916 1:00:00    1.706867365
Spruce_in        12/25/1916 1:00:00    1.630047281
Spruce_in        12/26/1916 1:00:00    1.570298327
Spruce_in        12/27/1916 1:00:00    1.706867365
Spruce_in        12/28/1916 1:00:00    2.364105859
Spruce_in        12/29/1916 1:00:00    2.586030545
Spruce_in        12/30/1916 1:00:00    2.756741842
Spruce_in        12/31/1916 1:00:00    2.731135148
Spruce_in        04/01/1917 1:00:00    3.626870974
Spruce_in        04/02/1917 1:00:00    2.807456748
Spruce_in        04/03/1917 1:00:00    2.662352145
Spruce_in        04/04/1917 1:00:00    3.456159677
Spruce_in        04/05/1917 1:00:00    3.28544838
Spruce_in        04/06/1917 1:00:00    2.978168045
Spruce_in        04/07/1917 1:00:00    5.146201518
Spruce_in        04/08/1917 1:00:00    5.077916999
Spruce_in        04/09/1917 1:00:00    4.471891894
Spruce_in        04/10/1917 1:00:00    2.116075995
Spruce_in        04/11/1917 1:00:00    2.030720346
Spruce_in        04/12/1917 1:00:00    2.005113652
Spruce_in        04/13/1917 1:00:00    1.885615744
Spruce_in        04/14/1917 1:00:00    2.346536246
Spruce_in        04/15/1917 1:00:00    2.95256135
Spruce_in        04/16/1917 1:00:00    2.662352145
Spruce_in        04/17/1917 1:00:00    2.491640848
Spruce_in        04/18/1917 1:00:00    2.491640848
Spruce_in        04/19/1917 1:00:00    2.662352145
Spruce_in        04/20/1917 1:00:00    3.072059258
Spruce_in        04/21/1917 1:00:00    3.28544838
Spruce_in        04/22/1917 1:00:00    3.558586455
Spruce_in        04/23/1917 1:00:00    3.456159677
Spruce_in        04/24/1917 1:00:00    3.387875158
Spruce_in        04/25/1917 1:00:00    2.807456748
Spruce_in        04/26/1917 1:00:00    2.491640848
Spruce_in        04/27/1917 1:00:00    2.278251727
Spruce_in        04/28/1917 1:00:00    1.936829133
Spruce_in        04/29/1917 1:00:00    1.757582271
Spruce_in        04/30/1917 1:00:00    1.570298327
Spruce_in        05/01/1917 1:00:00    1.459335984
Spruce_in        05/02/1917 1:00:00    1.305695817
Spruce_in        05/03/1917 1:00:00    1.98000544
Spruce_in        05/04/1917 1:00:00    1.834900838
Spruce_in        05/05/1917 1:00:00    1.706867365
Spruce_in        05/06/1917 1:00:00    1.502013809
Spruce_in        05/07/1917 1:00:00    1.305695817
Spruce_in        05/08/1917 1:00:00    1.186197909
Spruce_in        05/09/1917 1:00:00    1.305695817
Spruce_in        05/10/1917 1:00:00    1.186197909
Spruce_in        05/11/1917 1:00:00    1.365444771
Spruce_in        05/12/1917 1:00:00    1.706867365
Spruce_in        05/13/1917 1:00:00    1.681260671
Spruce_in        05/14/1917 1:00:00    1.43372929
Spruce_in        05/15/1917 1:00:00    1.186197909
Spruce_in        05/16/1917 1:00:00    1.126448955
Spruce_in        05/17/1917 1:00:00    1.066700001
Spruce_in        05/18/1917 1:00:00    1.024022177
Spruce_in        05/19/1917 1:00:00    0.938666528
Spruce_in        05/20/1917 1:00:00    0.81916862
Spruce_in        05/21/1917 1:00:00    0.725277407
Spruce_in        05/22/1917 1:00:00    0.676624687
Spruce_in        05/23/1917 1:00:00    0.651871549
Spruce_in        05/24/1917 1:00:00    0.616022177
Spruce_in        05/25/1917 1:00:00    0.580172804
Spruce_in        05/26/1917 1:00:00    0.531520085
Spruce_in        05/27/1917 1:00:00    0.482867365
Spruce_in        05/28/1917 1:00:00    0.422264855
Spruce_in        05/29/1917 1:00:00    0.278013809
Spruce_in        05/30/1917 1:00:00    0.313863181
Spruce_in        05/31/1917 1:00:00    0.223960202
Spruce_in        06/01/1917 1:00:00    0.296512503
Spruce_in        06/02/1917 1:00:00    0.489416269
Spruce_in        06/03/1917 1:00:00    0.308462294
Spruce_in        06/04/1917 1:00:00    0.259809574
Spruce_in        06/05/1917 1:00:00    0.223960202
Spruce_in        06/06/1917 1:00:00    0.247859783
Spruce_in        06/07/1917 1:00:00    0.13945811
Spruce_in        06/08/1917 1:00:00    0.175307482
Spruce_in        06/09/1917 1:00:00    0.102755181
Spruce_in        06/10/1917 1:00:00    0.344311666
Spruce_in        06/11/1917 1:00:00    0.680612921
Spruce_in        06/12/1917 1:00:00    0.800110829
Spruce_in        06/13/1917 1:00:00    0.783039699
Spruce_in        06/14/1917 1:00:00    0.740361875
Spruce_in        06/15/1917 1:00:00    0.800110829
Spruce_in        06/16/1917 1:00:00    0.987893256
Spruce_in        06/17/1917 1:00:00    1.252495766
Spruce_in        06/18/1917 1:00:00    1.696345139
Spruce_in        06/19/1917 1:00:00    2.157265641
Spruce_in        06/20/1917 1:00:00    1.602453925
Spruce_in        06/21/1917 1:00:00    1.167140118
Spruce_in        06/22/1917 1:00:00    1.04764221
Spruce_in        06/23/1917 1:00:00    0.928144302
Spruce_in        06/24/1917 1:00:00    0.740361875
Spruce_in        06/25/1917 1:00:00    0.612328402
Spruce_in        06/26/1917 1:00:00    0.680612921
Spruce_in        06/27/1917 1:00:00    0.800110829
Spruce_in        06/28/1917 1:00:00    0.987893256
Spruce_in        06/29/1917 1:00:00    1.04764221
Spruce_in        06/30/1917 1:00:00    1.174187505
Spruce_in        07/01/1917 1:00:00    0.977869513
Spruce_in        07/02/1917 1:00:00    0.832764911
Spruce_in        07/03/1917 1:00:00    0.610840224
Spruce_in        07/04/1917 1:00:00    0.423057798
Spruce_in        07/05/1917 1:00:00    0.276246082
Spruce_in        07/06/1917 1:00:00    0.155041061
Spruce_in        07/07/1917 1:00:00    0.034689597
Spruce_in        07/08/1917 1:00:00    -0.062615843
Spruce_in        07/09/1917 1:00:00    -0.182967307
Spruce_in        07/10/1917 1:00:00    -0.135168144
Spruce_in        07/11/1917 1:00:00    -0.159067725
Spruce_in        07/12/1917 1:00:00    -0.159067725
Spruce_in        07/13/1917 1:00:00    -0.049812495
Spruce_in        07/14/1917 1:00:00    -0.086515424
Spruce_in        07/15/1917 1:00:00    -0.122364797
Spruce_in        07/16/1917 1:00:00    -0.049812495
Spruce_in        07/17/1917 1:00:00    -0.062615843
Spruce_in        07/18/1917 1:00:00    -0.122364797
Spruce_in        07/19/1917 1:00:00    -0.159067725
Spruce_in        07/20/1917 1:00:00    -0.171017516
Spruce_in        07/21/1917 1:00:00    -0.194917098
Spruce_in        07/22/1917 1:00:00    -0.241009148
Spruce_in        07/23/1917 1:00:00    -0.260640947
Spruce_in        07/24/1917 1:00:00    -0.231620027
Spruce_in        07/25/1917 1:00:00    -0.246130487
Spruce_in        07/26/1917 1:00:00    -0.231620027
Spruce_in        07/27/1917 1:00:00    -0.252958939
Spruce_in        07/28/1917 1:00:00    -0.272590738
Spruce_in        07/29/1917 1:00:00    -0.29649032
Spruce_in        07/30/1917 1:00:00    -0.321243458
Spruce_in        07/31/1917 1:00:00    -0.510514062
Spruce_in        08/01/1917 1:00:00    -0.529292305
Spruce_in        08/02/1917 1:00:00    -0.534413644
Spruce_in        08/03/1917 1:00:00    -0.536974313
Spruce_in        08/04/1917 1:00:00    -0.541242096
Spruce_in        08/05/1917 1:00:00    -0.543802765
Spruce_in        08/06/1917 1:00:00    -0.548924104
Spruce_in        08/07/1917 1:00:00    -0.554045443
Spruce_in        08/08/1917 1:00:00    -0.560873895
Spruce_in        08/09/1917 1:00:00    -0.565995234
Spruce_in        08/10/1917 1:00:00    -0.525024523
Spruce_in        08/11/1917 1:00:00    1.053201419
Spruce_in        08/12/1917 1:00:00    0.669101  
Spruce_in        08/13/1917 1:00:00    0.42156962
Spruce_in        08/14/1917 1:00:00    0.208180498
Spruce_in        08/15/1917 1:00:00    0.063075896
Spruce_in        08/16/1917 1:00:00    -0.154581008
Spruce_in        08/17/1917 1:00:00    -0.2390831
Spruce_in        08/18/1917 1:00:00    -0.311635401
Spruce_in        08/19/1917 1:00:00    -0.154581008
Spruce_in        08/20/1917 1:00:00    -0.2390831
Spruce_in        08/21/1917 1:00:00    -0.203233728
Spruce_in        08/22/1917 1:00:00    -0.203233728
Spruce_in        08/23/1917 1:00:00    -0.227133309
Spruce_in        08/24/1917 1:00:00    -0.154581008
Spruce_in        08/25/1917 1:00:00    0.208180498
Spruce_in        08/26/1917 1:00:00    0.208180498
Spruce_in        08/27/1917 1:00:00    0.159527779
Spruce_in        08/28/1917 1:00:00    0.063075896
Spruce_in        08/29/1917 1:00:00    -0.009476406
Spruce_in        08/30/1917 1:00:00    -0.293136707
Spruce_in        08/31/1917 1:00:00    -0.377638799
Spruce_in        09/01/1917 1:00:00    -0.414341728
Spruce_in        09/02/1917 1:00:00    -0.4501911
Spruce_in        09/03/1917 1:00:00    -0.390442146
Spruce_in        09/04/1917 1:00:00    -0.4501911
Spruce_in        09/05/1917 1:00:00    -0.486894029
Spruce_in        09/06/1917 1:00:00    -0.510793611
Spruce_in        09/07/1917 1:00:00    -0.486894029
Spruce_in        09/08/1917 1:00:00    -0.510793611
Spruce_in        09/09/1917 1:00:00    -0.535546749
Spruce_in        09/10/1917 1:00:00    -0.559446331
Spruce_in        09/11/1917 1:00:00    -0.580785243
Spruce_in        09/12/1917 1:00:00    -0.600417042
Spruce_in        09/13/1917 1:00:00    -0.624316623
Spruce_in        09/14/1917 1:00:00    -0.696868925
Spruce_in        09/15/1917 1:00:00    -0.663580222
Spruce_in        09/16/1917 1:00:00    -0.667848004
Spruce_in        09/17/1917 1:00:00    -0.675530013
Spruce_in        09/18/1917 1:00:00    -0.687479803
Spruce_in        09/19/1917 1:00:00    -0.692601142
Spruce_in        09/20/1917 1:00:00    -0.696868925
Spruce_in        09/21/1917 1:00:00    -0.699429594
Spruce_in        09/22/1917 1:00:00    -0.682358464
Spruce_in        09/23/1917 1:00:00    -0.687479803
Spruce_in        09/24/1917 1:00:00    -0.160835452
Spruce_in        09/25/1917 1:00:00    -0.704550933
Spruce_in        09/26/1917 1:00:00    -0.711379385
Spruce_in        09/27/1917 1:00:00    -0.723670598
Spruce_in        09/28/1917 1:00:00    -0.704550933
Spruce_in        09/29/1917 1:00:00    -0.634559301
Spruce_in        09/30/1917 1:00:00    -0.714295127
Spruce_in        10/01/1917 1:00:00    -0.651131948
Spruce_in        10/02/1917 1:00:00    -0.668203077
Spruce_in        10/03/1917 1:00:00    -0.685274207
Spruce_in        10/04/1917 1:00:00    -0.699784667
Spruce_in        10/05/1917 1:00:00    -0.685274207
Spruce_in        10/06/1917 1:00:00    -0.651131948
Spruce_in        10/07/1917 1:00:00    -0.668203077
Spruce_in        10/08/1917 1:00:00    -0.685274207
Spruce_in        10/09/1917 1:00:00    -0.694663328
Spruce_in        10/10/1917 1:00:00    -0.561508517
Spruce_in        10/11/1917 1:00:00    0.112801107
Spruce_in        10/12/1917 1:00:00    0.018909893
Spruce_in        10/13/1917 1:00:00    0.112801107
Spruce_in        10/14/1917 1:00:00    0.018909893
Spruce_in        10/15/1917 1:00:00    -0.078395546
Spruce_in        10/16/1917 1:00:00    -0.029742826
Spruce_in        10/17/1917 1:00:00    -0.174847429
Spruce_in        10/18/1917 1:00:00    -0.259349521
Spruce_in        10/19/1917 1:00:00    -0.368604751
Spruce_in        10/20/1917 1:00:00    0.018909893
Spruce_in        10/21/1917 1:00:00    0.53957935
Spruce_in        10/22/1917 1:00:00    1.589453827
Spruce_in        10/23/1917 1:00:00    1.000499852
Spruce_in        10/24/1917 1:00:00    0.53957935
Spruce_in        10/25/1917 1:00:00    0.360332488
Spruce_in        10/26/1917 1:00:00    0.479830396
Spruce_in        10/27/1917 1:00:00    0.300583534
Spruce_in        10/28/1917 1:00:00    0.360332488
Spruce_in        10/29/1917 1:00:00    0.112801107
Spruce_in        10/30/1917 1:00:00    0.018909893
Spruce_in        10/31/1917 1:00:00    0.718327728
Spruce_in        11/01/1917 1:00:00    0.470796347
Spruce_in        11/02/1917 1:00:00    0.223264967
Spruce_in        11/03/1917 1:00:00    0.069624799
Spruce_in        11/04/1917 1:00:00    0.02097208
Spruce_in        11/05/1917 1:00:00    -0.075479803
Spruce_in        11/06/1917 1:00:00    -0.184735033
Spruce_in        11/07/1917 1:00:00    -0.124132523
Spruce_in        11/08/1917 1:00:00    -0.02768064
Spruce_in        11/09/1917 1:00:00    -0.075479803
Spruce_in        11/10/1917 1:00:00    -0.148032105
Spruce_in        11/11/1917 1:00:00    -0.208634615
Spruce_in        11/12/1917 1:00:00    -0.293136707
Spruce_in        11/13/1917 1:00:00    -0.305940054
Spruce_in        11/14/1917 1:00:00    -0.341789427
Spruce_in        11/15/1917 1:00:00    -0.365689008
Spruce_in        11/16/1917 1:00:00    -0.377638799
Spruce_in        11/17/1917 1:00:00    -0.414341728
Spruce_in        11/18/1917 1:00:00    -0.43824131
Spruce_in        11/19/1917 1:00:00    -0.462994448
Spruce_in        11/20/1917 1:00:00    -0.486894029
Spruce_in        11/21/1917 1:00:00    -0.510793611
Spruce_in        11/22/1917 1:00:00    -0.522743402
Spruce_in        11/23/1917 1:00:00    -0.4501911
Spruce_in        11/24/1917 1:00:00    -0.124132523
Spruce_in        11/25/1917 1:00:00    0.223264967
Spruce_in        11/26/1917 1:00:00    0.120838188
Spruce_in        11/27/1917 1:00:00    0.069624799
Spruce_in        11/28/1917 1:00:00    -0.02768064
Spruce_in        11/29/1917 1:00:00    -0.124132523
Spruce_in        11/30/1917 1:00:00    0.063075896
Spruce_in        04/01/1918 1:00:00    2.16282485
Spruce_in        04/02/1918 1:00:00    2.888347862
Spruce_in        04/03/1918 1:00:00    2.990774641
Spruce_in        04/04/1918 1:00:00    3.059059159
Spruce_in        04/05/1918 1:00:00    2.990774641
Spruce_in        04/06/1918 1:00:00    2.888347862
Spruce_in        04/07/1918 1:00:00    2.820063343
Spruce_in        04/08/1918 1:00:00    2.717636565
Spruce_in        04/09/1918 1:00:00    2.649352046
Spruce_in        04/10/1918 1:00:00    2.41035623
Spruce_in        04/11/1918 1:00:00    2.239644933
Spruce_in        04/12/1918 1:00:00    2.094540331
Spruce_in        04/13/1918 1:00:00    1.84700895
Spruce_in        04/14/1918 1:00:00    1.710439912
Spruce_in        04/15/1918 1:00:00    1.462908532
Spruce_in        04/16/1918 1:00:00    1.633619829
Spruce_in        04/17/1918 1:00:00    1.778724431
Spruce_in        04/18/1918 1:00:00    1.394624013
Spruce_in        04/19/1918 1:00:00    1.053201419
Spruce_in        04/20/1918 1:00:00    0.9849169 
Spruce_in        04/21/1918 1:00:00    0.916632381
Spruce_in        04/22/1918 1:00:00    4.749101  
Spruce_in        04/23/1918 1:00:00    3.835795561
Spruce_in        04/24/1918 1:00:00    3.571193051
Spruce_in        04/25/1918 1:00:00    3.059059159
Spruce_in        04/26/1918 1:00:00    2.717636565
Spruce_in        04/27/1918 1:00:00    2.239644933
Spruce_in        04/28/1918 1:00:00    1.84700895
Spruce_in        04/29/1918 1:00:00    1.462908532
Spruce_in        04/30/1918 1:00:00    1.189770456
Spruce_in        05/01/1918 1:00:00    1.822890434
Spruce_in        05/02/1918 1:00:00    2.283810936
Spruce_in        05/03/1918 1:00:00    2.352095455
Spruce_in        05/04/1918 1:00:00    1.967995036
Spruce_in        05/05/1918 1:00:00    1.583894618
Spruce_in        05/06/1918 1:00:00    1.242472024
Spruce_in        05/07/1918 1:00:00    0.977869513
Spruce_in        05/08/1918 1:00:00    0.738873697
Spruce_in        05/09/1918 1:00:00    0.610840224
Spruce_in        05/10/1918 1:00:00    0.491342316
Spruce_in        05/11/1918 1:00:00    1.046154032
Spruce_in        05/12/1918 1:00:00    0.397451103
Spruce_in        05/13/1918 1:00:00    0.348798383
Spruce_in        05/14/1918 1:00:00    0.300145664
Spruce_in        05/15/1918 1:00:00    0.252346501
Spruce_in        05/16/1918 1:00:00    0.119191689
Spruce_in        05/17/1918 1:00:00    0.08248876
Spruce_in        05/18/1918 1:00:00    -0.013963123
Spruce_in        05/19/1918 1:00:00    -0.049812495
Spruce_in        05/20/1918 1:00:00    -0.086515424
Spruce_in        05/21/1918 1:00:00    -0.122364797
Spruce_in        05/22/1918 1:00:00    -0.159067725
Spruce_in        05/23/1918 1:00:00    -0.182967307
Spruce_in        05/24/1918 1:00:00    -0.159067725
Spruce_in        05/25/1918 1:00:00    -0.182967307
Spruce_in        05/26/1918 1:00:00    -0.207720445
Spruce_in        05/27/1918 1:00:00    -0.219670236
Spruce_in        05/28/1918 1:00:00    -0.231620027
Spruce_in        05/29/1918 1:00:00    -0.252958939
Spruce_in        05/30/1918 1:00:00    -0.267469399
Spruce_in        05/31/1918 1:00:00    -0.088441472
Spruce_in        06/01/1918 1:00:00    -0.095269924
Spruce_in        06/02/1918 1:00:00    -0.100391263
Spruce_in        06/03/1918 1:00:00    -0.109780384
Spruce_in        06/04/1918 1:00:00    -0.117462393
Spruce_in        06/05/1918 1:00:00    -0.146483313
Spruce_in        06/06/1918 1:00:00    -0.158433104
Spruce_in        06/07/1918 1:00:00    -0.063688334
Spruce_in        06/08/1918 1:00:00    0.13945811
Spruce_in        06/09/1918 1:00:00    0.102755181
Spruce_in        06/10/1918 1:00:00    0.13945811
Spruce_in        06/11/1918 1:00:00    0.102755181
Spruce_in        06/12/1918 1:00:00    0.308462294
Spruce_in        06/13/1918 1:00:00    0.344311666
Spruce_in        06/14/1918 1:00:00    0.392964386
Spruce_in        06/15/1918 1:00:00    0.586721708
Spruce_in        06/16/1918 1:00:00    0.51331585
Spruce_in        06/17/1918 1:00:00    0.441617105
Spruce_in        06/18/1918 1:00:00    0.308462294
Spruce_in        06/19/1918 1:00:00    0.211156854
Spruce_in        06/20/1918 1:00:00    0.114704971
Spruce_in        06/21/1918 1:00:00    0.030202879
Spruce_in        06/22/1918 1:00:00    0.006303298
Spruce_in        06/23/1918 1:00:00    0.102755181
Spruce_in        06/24/1918 1:00:00    0.223960202
Spruce_in        06/25/1918 1:00:00    0.175307482
Spruce_in        06/26/1918 1:00:00    0.223960202
Spruce_in        06/27/1918 1:00:00    0.308462294
Spruce_in        06/28/1918 1:00:00    0.441617105
Spruce_in        06/29/1918 1:00:00    0.586721708
Spruce_in        06/30/1918 1:00:00    0.627971968
Spruce_in        07/01/1918 1:00:00    0.507620503
Spruce_in        07/02/1918 1:00:00    0.447017993
Spruce_in        07/03/1918 1:00:00    0.362515901
Spruce_in        07/04/1918 1:00:00    0.278013809
Spruce_in        07/05/1918 1:00:00    0.362515901
Spruce_in        07/06/1918 1:00:00    0.580172804
Spruce_in        07/07/1918 1:00:00    0.725277407
Spruce_in        07/08/1918 1:00:00    8.074398746
Spruce_in        07/09/1918 1:00:00    5.266197909
Spruce_in        07/10/1918 1:00:00    2.679921758
Spruce_in        07/11/1918 1:00:00    2.440925943
Spruce_in        07/12/1918 1:00:00    1.630047281
Spruce_in        07/13/1918 1:00:00    1.305695817
Spruce_in        07/14/1918 1:00:00    1.186197909
Spruce_in        07/15/1918 1:00:00    1.245946863
Spruce_in        07/16/1918 1:00:00    1.066700001
Spruce_in        07/17/1918 1:00:00    0.938666528