[TITLE]
Scenario Run :  POSTDEV-2YR
Example 1

[OPTIONS]
;Option and Files Scenario Set: BASE, Base Simulation Options
FLOW_UNITS	CFS
INFILTRATION	HORTON
FLOW_ROUTING	DYNWAVE
ALLOW_PONDING	NO
DRY_DAYS	5.000000
SKIP_STEADY_STATE 	NO
IGNORE_RAINFALL	NO
IGNORE_SNOWMELT	NO
IGNORE_GROUNDWATER	NO
IGNORE_QUALITY	NO
FORCE_MAIN_EQUATION	H-W
LINK_OFFSETS	DEPTH
MIN_SLOPE	0.000000
START_DATE	01/01/1998
START_TIME	00:00
END_DATE	01/02/1998
END_TIME	12:00
REPORT_START_DATE	01/01/1998
REPORT_START_TIME	00:00
SWEEP_START	01/01
SWEEP_END	12/31
WET_STEP	00:15:00
DRY_STEP	01:00:00
ROUTING_STEP	60
REPORT_STEP	01:00:00
INERTIAL_DAMPING	PARTIAL
VARIABLE_STEP	0.750000
MINIMUM_STEP	0.5
LENGTHENING_STEP	0
MIN_SURFAREA	0.000000
NORMAL_FLOW_LIMITED	SLOPE

[FILES]

[RAINGAGES]
;  New Raingage
RAINGAGE-100YR	INTENSITY	1.000000	1.000000	TIMESERIES	TIMESERI-100		
RG1	INTENSITY	1.000000	1.000000	TIMESERIES	TS1		

[HYDROGRAPHS]

[TEMPERATURE]

[ADJUSTMENTS]

[SUBCATCHMENTS]
1	RG1	STOR-12	10.000000	45.000000	500.000000	0.010000	0.000000
2	RG1	STOR-12	10.000000	25.000000	500.000000	0.010000	0.000000

[SUBAREAS]
1	0.001000	0.100000	0.050000	0.050000	25.000000	OUTLET
2	0.001000	0.100000	0.050000	0.050000	25.000000	OUTLET

[INFILTRATION]
1	0.350000	0.250000	4.140000	0.500000	0.000000
2	0.700000	0.300000	4.140000	0.500000	0.000000

[AQUIFERS]

[GROUNDWATER]

[GWF]

[SNOWPACKS]

[JUNCTIONS]
10	995.000000	3.000000	0.000000	0.000000	0.000000
13	995.000000	3.000000	0.000000	0.000000	0.000000
14	990.000000	3.000000	0.000000	0.000000	0.000000
15	987.000000	3.000000	0.000000	0.000000	0.000000
16	985.000000	3.000000	0.000000	0.000000	0.000000
17	980.000000	3.000000	0.000000	0.000000	0.000000
19	1010.000000	3.000000	0.000000	0.000000	0.000000
20	1005.000000	3.000000	0.000000	0.000000	0.000000
21	990.000000	3.000000	0.000000	0.000000	0.000000
22	987.000000	4.000000	0.000000	0.000000	0.000000
23	990.000000	3.000000	0.000000	0.000000	0.000000
24	984.000000	3.000000	0.000000	0.000000	0.000000
9	996.000000	3.000000	0.000000	0.000000	0.000000

[OUTFALLS]
18	975.000000	FREE	NO

[DIVIDERS]

[STORAGE]
;  New Storage
STOR-12	940.964355	74.035645	0.000000	FUNCTIONAL	0.000000	0.000000	1000.000000	0.000000	0.000000

[CONDUITS]
10	17	18	400.000000	0.010000	0.000000	0.000000	0.000000	0.000000
11	13	14	400.000000	0.010000	0.000000	0.000000	0.000000	0.000000
12	14	15	400.000000	0.010000	0.000000	0.000000	0.000000	0.000000
13	15	16	400.000000	0.010000	0.000000	0.000000	0.000000	0.000000
14	23	24	400.000000	0.010000	0.000000	0.000000	0.000000	0.000000
15	16	24	100.000000	0.010000	0.000000	0.000000	0.000000	0.000000
16	24	17	400.000000	0.010000	0.000000	0.000000	0.000000	0.000000
4	19	20	200.000000	0.010000	0.000000	0.000000	0.000000	0.000000
5	20	21	200.000000	0.010000	0.000000	0.000000	0.000000	0.000000
6	10	21	400.000000	0.010000	0.000000	1.000000	0.000000	0.000000
7	21	22	300.000000	0.010000	1.000000	1.000000	0.000000	0.000000
; New Conduit
CDT-11	9	10	500.000000	0.010000	0.000000	0.000000	0.000000	0.000000
;  New Weir
WEIR-25	22	16	400.000000	0.010000	0.000000	0.000000	0.000000	0.000000

[PUMPS]

[ORIFICES]
;  New Orifice
ORI-19	STOR-12	9	SIDE	1.000000	0.600000	NO

[WEIRS]
;  New Weir
WEIR-19	STOR-12	9	TRANSVERSE	20.000000	3.300000	NO	0	0.000000	YES

[XSECTIONS]
10	CIRCULAR	2.000000	0.000000	0.000000	0.000000	1	0
11	CIRCULAR	1.500000	0.000000	0.000000	0.000000	1	0
12	CIRCULAR	1.500000	0.000000	0.000000	0.000000	1	0
13	CIRCULAR	1.500000	0.000000	0.000000	0.000000	1	0
14	CIRCULAR	1.000000	0.000000	0.000000	0.000000	1	0
15	CIRCULAR	2.000000	0.000000	0.000000	0.000000	1	0
16	CIRCULAR	2.000000	0.000000	0.000000	0.000000	1	0
4	CIRCULAR	1.000000	0.000000	0.000000	0.000000	1	0
5	CIRCULAR	1.000000	0.000000	0.000000	0.000000	1	0
6	CIRCULAR	1.000000	0.000000	0.000000	0.000000	1	0
7	CIRCULAR	2.000000	0.000000	0.000000	0.000000	1	0
CDT-11	CIRCULAR	1.000000	0.000000	0.000000	0.000000	1	0
WEIR-25	CIRCULAR	1.000000	0.000000	0.000000	0.000000	1	0
WEIR-19	RECT_OPEN	10.000000	0.009466	0.000000	0.000000
ORI-19	CIRCULAR	0.426468	0.000000	0.000000	0.000000

[TRANSECTS]

[LOSSES]
10	0.000000	0.000000	0.000000	NO	0.000000
11	0.000000	0.000000	0.000000	NO	0.000000
12	0.000000	0.000000	0.000000	NO	0.000000
13	0.000000	0.000000	0.000000	NO	0.000000
14	0.000000	0.000000	0.000000	NO	0.000000
15	0.000000	0.000000	0.000000	NO	0.000000
16	0.000000	0.000000	0.000000	NO	0.000000
4	0.000000	0.000000	0.000000	NO	0.000000
5	0.000000	0.000000	0.000000	NO	0.000000
6	0.000000	0.000000	0.000000	NO	0.000000
7	0.000000	0.000000	0.000000	NO	0.000000
CDT-11	0.000000	0.000000	0.000000	NO	0.000000
WEIR-25	0.000000	0.000000	0.000000	NO	0.000000

[CONTROLS]
RULE INNOVYZE-INIT-STATUS-0
IF SIMULATION TIME = 0
THEN ORIFICE ORI-19 SETTING = 1.000000
PRIORITY 0.000000


[POLLUTANTS]
TSS	MG/L	0.000000	0.000000	0.000000	0.000000	NO	*	0.000000	0.000000	0.000000
LEAD	UG/L	0.000000	0.000000	0.000000	0.000000	NO	TSS	0.200000	0.000000	0.000000

[LANDUSES]
RESIDENTIAL	0.000000	0.000000	0.000000
UNDEVELOPED	0.000000	0.000000	0.000000

[COVERAGES]
1	RESIDENTIAL	100.000000
2	RESIDENTIAL	50.000000
2	UNDEVELOPED	50.000000

[BUILDUP]
RESIDENTIAL	TSS	SAT	50.000000	0.000000	2.000000	AREA
RESIDENTIAL	LEAD	NONE	0.000000	0.000000	0.000000	AREA
UNDEVELOPED	TSS	SAT	100.000000	0.000000	3.000000	AREA
UNDEVELOPED	LEAD	NONE	0.000000	0.000000	0.000000	AREA

[WASHOFF]
RESIDENTIAL	TSS	EXP	0.100000	1.000000	0.000000	0.000000
RESIDENTIAL	LEAD	EMC	0.000000	0.000000	0.000000	0.000000
UNDEVELOPED	TSS	EXP	0.100000	0.700000	0.000000	0.000000
UNDEVELOPED	LEAD	EMC	0.000000	0.000000	0.000000	0.000000

[TREATMENT]

[INFLOWS]

[DWF]

[RDII]

[LOADINGS]

[CURVES]

[TIMESERIES]
;  RAINFALL
TIMESERI-100	0:00	0.000000
TIMESERI-100	1:00	0.600000
TIMESERI-100	2:00	1.300000
TIMESERI-100	3:00	2.100000
TIMESERI-100	4:00	1.100000
TIMESERI-100	5:00	0.800000
TIMESERI-100	6:00	0.600000
TIMESERI-100	27:00	0.200000
TIMESERI-100	28:00	0.100000
TIMESERI-100	29:00	0.100000
TIMESERI-100	30:00	0.000000

;  RAINFALL
TS1	0:00	0.000000
TS1	1:00	0.250000
TS1	2:00	0.500000
TS1	3:00	0.800000
TS1	4:00	0.500000
TS1	5:00	0.400000
TS1	6:00	0.300000
TS1	27:00	0.200000
TS1	28:00	0.150000
TS1	29:00	0.100000
TS1	30:00	0.000000


[PATTERNS]

[REPORT]
;Report Option Set: BASE, Base Simulation Report
INPUT NO
CONTINUITY YES
FLOWSTATS YES
CONTROLS NO
SUBCATCHMENTS  ALL
NODES  ALL
LINKS  ALL

[COORDINATES]
10	4105.260000	6947.370000
13	2336.840000	4357.890000
14	3157.890000	4294.740000
15	3221.050000	3242.110000
16	4821.050000	3326.320000
17	6252.630000	2147.370000
18	6631.580000	505.260000
19	7768.420000	6736.840000
20	5957.890000	6589.470000
21	4926.320000	6105.260000
22	4421.050000	4715.790000
23	6484.210000	3978.950000
24	5389.470000	3031.580000
9	4080.177001	9051.974332
STOR-12	4089.555000	10173.931000


[POLYGONS]

1	3246.779713	7625.452191
1	2804.679713	6972.822191
1	-416.380287	7057.032191
1	-437.430287	9246.512191
1	-226.900287	9920.192191
1	467.829713	10446.512191
1	3309.939713	10425.452191

2	8875.676269	10594.344820
2	8980.936269	7668.024820
2	7191.466269	7625.924820
2	6201.996269	7225.924820
2	5465.146269	8131.184820
2	5401.996269	10552.234820

[VERTICES]

10	6673.680000	1368.420000
ORI-19	4351.575215	9896.324330
WEIR-19	3944.477894	9896.324330

[SYMBOLS]
RAINGAGE-100YR	1000.000000	6747.857000
RG1	5000.000000	8210.530000

[MAP]
DIMENSIONS	-908.348615	0.805759	9451.854597	11098.799061

