[TITLE]
;;Project Title/Notes

[OPTIONS]
;;Option             Value
FLOW_UNITS           CFS
INFILTRATION         HORTON
FLOW_ROUTING         DYNWAVE
LINK_OFFSETS         DEPTH
MIN_SLOPE            0
ALLOW_PONDING        YES
SKIP_STEADY_STATE    NO

START_DATE           01/01/1995
START_TIME           00:00:00
REPORT_START_DATE    01/01/1995
REPORT_START_TIME    00:00:00
END_DATE             08/30/1995
END_TIME             23:55:00
SWEEP_START          01/01
SWEEP_END            12/31
DRY_DAYS             5.000000
REPORT_STEP          00:05:00
WET_STEP             00:05:00
DRY_STEP             24:05:00
ROUTING_STEP         0:01:00 
RULE_STEP            00:00:00

INERTIAL_DAMPING     NONE
NORMAL_FLOW_LIMITED  SLOPE
FORCE_MAIN_EQUATION  H-W
VARIABLE_STEP        0.75
LENGTHENING_STEP     0
MIN_SURFAREA         12.557
MAX_TRIALS           8
HEAD_TOLERANCE       0.005
SYS_FLOW_TOL         5
LAT_FLOW_TOL         5
MINIMUM_STEP         0.5
THREADS              1

[EVAPORATION]
;;Data Source    Parameters
;;-------------- ----------------
CONSTANT         0.0
DRY_ONLY         NO

[RAINGAGES]
;;Name           Format    Interval SCF      Source    
;;-------------- --------- ------ ------ ----------
3-2              VOLUME    0:05     1.0      TIMESERIES RAINFALL        

[SUBCATCHMENTS]
;;Name           Rain Gage        Outlet           Area     %Imperv  Width    %Slope   CurbLen  SnowPack        
;;-------------- ---------------- ---------------- -------- -------- -------- -------- -------- ----------------
LS33             3-2              330              1588.000000 25.000000 500.000000 0.500000 0.000000                 

[SUBAREAS]
;;Subcatchment   N-Imperv   N-Perv     S-Imperv   S-Perv     PctZero    RouteTo    PctRouted 
;;-------------- ---------- ---------- ---------- ---------- ---------- ---------- ----------
LS33             0.100000   0.001000   0.050000   0.050000   25.000000  OUTLET    

[INFILTRATION]
;;Subcatchment   Param1     Param2     Param3     Param4     Param5    
;;-------------- ---------- ---------- ---------- ---------- ----------
LS33             3.0        0.5        4          7          0         

[JUNCTIONS]
;;Name           Elevation  MaxDepth   InitDepth  SurDepth   Aponded   
;;-------------- ---------- ---------- ---------- ---------- ----------
330              5.000000   5.000000   0.000000   0.000000   0.000000  

[OUTFALLS]
;;Name           Elevation  Type       Stage Data       Gated    Route To        
;;-------------- ---------- ---------- ---------------- -------- ----------------
PS33             0.000000   FREE                        NO                       

[CONDUITS]
;;Name           From Node        To Node          Length     Roughness  InOffset   OutOffset  InitFlow   MaxFlow   
;;-------------- ---------------- ---------------- ---------- ---------- ---------- ---------- ---------- ----------
330              330              PS33             500.000000 0.010000   0.000000   0.000000   0.000000   0.000000  

[XSECTIONS]
;;Link           Shape        Geom1            Geom2      Geom3      Geom4      Barrels    Culvert   
;;-------------- ------------ ---------------- ---------- ---------- ---------- ---------- ----------
330              CIRCULAR     2.000000         0.000000   0.000000   0.000000   1                    

[LOSSES]
;;Link           Kentry     Kexit      Kavg       Flap Gate  Seepage   
;;-------------- ---------- ---------- ---------- ---------- ----------
330              0.000000   0.000000   0.000000   NO         0         

[CONTROLS]










[INFLOWS]
;;Node           Constituent      Time Series      Type     Mfactor  Sfactor  Baseline Pattern
;;-------------- ---------------- ---------------- -------- -------- -------- -------- --------
PS33             FLOW             ""               FLOW     1.0      1.000000         

[HYDROGRAPHS]
;;Hydrograph     Rain Gage/Month  Response R        T        K        Dmax     Drecov   Dinit   
;;-------------- ---------------- -------- -------- -------- -------- -------- -------- --------
LS33             3-2             
LS33             All              Short    .05      2.200000 1.100000 0.060000 0.010000 0       
LS33             All              Medium   .03      6.500000 1.600000 0.060000 0.010000 0       
LS33             All              Long     .02      10.000000 2.000000 0.060000 0.010000 0       


[RDII]
;;Node           Unit Hydrograph  Sewer Area
;;-------------- ---------------- ----------
330              LS33             1588.000000
PS33             LS33             1588.000000

[TIMESERIES]
;;Name           Date       Time       Value     
;;-------------- ---------- ---------- ----------
RAINFALL         1/1/1995   00:05      0.0000    
RAINFALL         1/1/1995   00:10      0.0000    
RAINFALL         1/1/1995   00:15      0.0000    
RAINFALL         1/1/1995   00:20      0.0000    
RAINFALL         1/1/1995   00:25      0.0000    
RAINFALL         1/1/1995   00:30      0.0000    
RAINFALL         1/1/1995   00:35      0.0000    
RAINFALL         1/1/1995   00:40      0.0000    
RAINFALL         1/1/1995   00:45      0.0000    
RAINFALL         1/1/1995   00:50      0.0000    
RAINFALL         1/1/1995   00:55      0.0000    
RAINFALL         1/1/1995   01:00      0.0000    
RAINFALL         1/1/1995   01:05      0.0000    
RAINFALL         1/1/1995   01:10      0.0000    
RAINFALL         1/1/1995   01:15      0.0000    
RAINFALL         1/1/1995   01:20      0.0000    
RAINFALL         1/1/1995   01:25      0.0000    
RAINFALL         1/1/1995   01:30      0.0000    
RAINFALL         1/1/1995   01:35      0.0000    
RAINFALL         1/1/1995   01:40      0.0000    
RAINFALL         1/1/1995   01:45      0.0000    
RAINFALL         1/1/1995   01:50      0.0000    
RAINFALL         1/1/1995   01:55      0.0000    
RAINFALL         1/1/1995   02:00      0.0000    
RAINFALL         1/1/1995   02:05      0.0000    
RAINFALL         1/1/1995   02:10      0.0000    
RAINFALL         1/1/1995   02:15      0.0000    
RAINFALL         1/1/1995   02:20      0.0000    
RAINFALL         1/1/1995   02:25      0.0000    
RAINFALL         1/1/1995   02:30      0.0000    
RAINFALL         1/1/1995   02:35      0.0000    
RAINFALL         1/1/1995   02:40      0.0000    
RAINFALL         1/1/1995   02:45      0.0000    
RAINFALL         1/1/1995   02:50      0.0000    
RAINFALL         1/1/1995   02:55      0.0000    
RAINFALL         1/1/1995   03:00      0.0000    
RAINFALL         1/1/1995   03:05      0.0000    
RAINFALL         1/1/1995   03:10      0.0000    
RAINFALL         1/1/1995   03:15      0.0000    
RAINFALL         1/1/1995   03:20      0.0000    
RAINFALL         1/1/1995   03:25      0.0000    
RAINFALL         1/1/1995   03:30      0.0000    
RAINFALL         1/1/1995   03:35      0.0000    
RAINFALL         1/1/1995   03:40      0.0000    
RAINFALL         1/1/1995   03:45      0.0100    
RAINFALL         1/1/1995   03:50      0.0000    
RAINFALL         1/1/1995   03:55      0.0000    
RAINFALL         1/1/1995   04:00      0.0000    
RAINFALL         1/1/1995   04:05      0.0000    
RAINFALL         1/1/1995   04:10      0.0000    
RAINFALL         1/1/1995   04:15      0.0000    
RAINFALL         1/1/1995   04:20      0.0000    
RAINFALL         1/1/1995   04:25      0.0100    
RAINFALL         1/1/1995   04:30      0.0000    
RAINFALL         1/1/1995   04:35      0.0000    
RAINFALL         1/1/1995   04:40      0.0000    
RAINFALL         1/1/1995   04:45      0.0000    
RAINFALL         1/1/1995   04:50      0.0000    
RAINFALL         1/1/1995   04:55      0.0000    
RAINFALL         1/1/1995   05:00      0.0000    
RAINFALL         1/1/1995   05:05      0.0000    
RAINFALL         1/1/1995   05:10      0.0000    
RAINFALL         1/1/1995   05:15      0.0000    
RAINFALL         1/1/1995   05:20      0.0000    
RAINFALL         1/1/1995   05:25      0.0000    
RAINFALL         1/1/1995   05:30      0.0000    
RAINFALL         1/1/1995   05:35      0.0000    
RAINFALL         1/1/1995   05:40      0.0000    
RAINFALL         1/1/1995   05:45      0.0000    
RAINFALL         1/1/1995   05:50      0.0000    
RAINFALL         1/1/1995   05:55      0.0000    
RAINFALL         1/1/1995   06:00      0.0000    
RAINFALL         1/1/1995   06:05      0.0000    
RAINFALL         1/1/1995   06:10      0.0000    
RAINFALL         1/1/1995   06:15      0.0000    
RAINFALL         1/1/1995   06:20      0.0000    
RAINFALL         1/1/1995   06:25      0.0000    
RAINFALL         1/1/1995   06:30      0.0000    
RAINFALL         1/1/1995   06:35      0.0000    
RAINFALL         1/1/1995   06:40      0.0000    
RAINFALL         1/1/1995   06:45      0.0000    
RAINFALL         1/1/1995   06:50      0.0000    
RAINFALL         1/1/1995   06:55      0.0000    
RAINFALL         1/1/1995   07:00      0.0000    
RAINFALL         1/1/1995   07:05      0.0000    
RAINFALL         1/1/1995   07:10      0.0000    
RAINFALL         1/1/1995   07:15      0.0000    
RAINFALL         1/1/1995   07:20      0.0000    
RAINFALL         1/1/1995   07:25      0.0000    
RAINFALL         1/1/1995   07:30      0.0000    
RAINFALL         1/1/1995   07:35      0.0000    
RAINFALL         1/1/1995   07:40      0.0000    
RAINFALL         1/1/1995   07:45      0.0000    
RAINFALL         1/1/1995   07:50      0.0000    
RAINFALL         1/1/1995   07:55      0.0000    
RAINFALL         1/1/1995   08:00      0.0000    
RAINFALL         1/1/1995   08:05      0.0000    
RAINFALL         1/1/1995   08:10      0.0000    
RAINFALL         1/1/1995   08:15      0.0000    
RAINFALL         1/1/1995   08:20      0.0000    
RAINFALL         1/1/1995   08:25      0.0000    
RAINFALL         1/1/1995   08:30      0.0000    
RAINFALL         1/1/1995   08:35      0.0000    
RAINFALL         1/1/1995   08:40      0.0000    
RAINFALL         1/1/1995   08:45      0.0000    
RAINFALL         1/1/1995   08:50      0.0000    
RAINFALL         1/1/1995   08:55      0.0000    
RAINFALL         1/1/1995   09:00      0.0000    
RAINFALL         1/1/1995   09:05      0.0000    
RAINFALL         1/1/1995   09:10      0.0000    
RAINFALL         1/1/1995   09:15      0.0000    
RAINFALL         1/1/1995   09:20      0.0000    
RAINFALL         1/1/1995   09:25      0.0000    
RAINFALL         1/1/1995   09:30      0.0000    
RAINFALL         1/1/1995   09:35      0.0100    
RAINFALL         1/1/1995   09:40      0.0000    
RAINFALL         1/1/1995   09:45      0.0000    
RAINFALL         1/1/1995   09:50      0.0000    
RAINFALL         1/1/1995   09:55      0.0000    
RAINFALL         1/1/1995   10:00      0.0000    
RAINFALL         1/1/1995   10:05      0.0000    
RAINFALL         1/1/1995   10:10      0.0000    
RAINFALL         1/1/1995   10:15      0.0000    
RAINFALL         1/1/1995   10:20      0.0000    
RAINFALL         1/1/1995   10:25      0.0000    
RAINFALL         1/1/1995   10:30      0.0000    
RAINFALL         1/1/1995   10:35      0.0000    
RAINFALL         1/1/1995   10:40      0.0000    
RAINFALL         1/1/1995   10:45      0.0000    
RAINFALL         1/1/1995   10:50      0.0000    
RAINFALL         1/1/1995   10:55      0.0000    
RAINFALL         1/1/1995   11:00      0.0000    
RAINFALL         1/1/1995   11:05      0.0000    
RAINFALL         1/1/1995   11:10      0.0000    
RAINFALL         1/1/1995   11:15      0.0000    
RAINFALL         1/1/1995   11:20      0.0000    
RAINFALL         1/1/1995   11:25      0.0000    
RAINFALL         1/1/1995   11:30      0.0000    
RAINFALL         1/1/1995   11:35      0.0000    
RAINFALL         1/1/1995   11:40      0.0000    
RAINFALL         1/1/1995   11:45      0.0000    
RAINFALL         1/1/1995   11:50      0.0000    
RAINFALL         1/1/1995   11:55      0.0000    
RAINFALL         1/1/1995   12:00      0.0000    
RAINFALL         1/1/1995   12:05      0.0000    
RAINFALL         1/1/1995   12:10      0.0000    
RAINFALL         1/1/1995   12:15      0.0000    
RAINFALL         1/1/1995   12:20      0.0000    
RAINFALL         1/1/1995   12:25      0.0000    
RAINFALL         1/1/1995   12:30      0.0000    
RAINFALL         1/1/1995   12:35      0.0000    
RAINFALL         1/1/1995   12:40      0.0000    
RAINFALL         1/1/1995   12:45      0.0000    
RAINFALL         1/1/1995   12:50      0.0000    
RAINFALL         1/1/1995   12:55      0.0100    
RAINFALL         1/1/1995   13:00      0.0000    
RAINFALL         1/1/1995   13:05      0.0000    
RAINFALL         1/1/1995   13:10      0.0000    
RAINFALL         1/1/1995   13:15      0.0000    
RAINFALL         1/1/1995   13:20      0.0000    
RAINFALL         1/1/1995   13:25      0.0000    
RAINFALL         1/1/1995   13:30      0.0000    
RAINFALL         1/1/1995   13:35      0.0000    
RAINFALL         1/1/1995   13:40      0.0000    
RAINFALL         1/1/1995   13:45      0.0000    
RAINFALL         1/1/1995   13:50      0.0000    
RAINFALL         1/1/1995   13:55      0.0000    
RAINFALL         1/1/1995   14:00      0.0000    
RAINFALL         1/1/1995   14:05      0.0000    
RAINFALL         1/1/1995   14:10      0.0000    
RAINFALL         1/1/1995   14:15      0.0000    
RAINFALL         1/1/1995   14:20      0.0000    
RAINFALL         1/1/1995   14:25      0.0000    
RAINFALL         1/1/1995   14:30      0.0000    
RAINFALL         1/1/1995   14:35      0.0000    
RAINFALL         1/1/1995   14:40      0.0000    
RAINFALL         1/1/1995   14:45      0.0000    
RAINFALL         1/1/1995   14:50      0.0000    
RAINFALL         1/1/1995   14:55      0.0000    
RAINFALL         1/1/1995   15:00      0.0000    
RAINFALL         1/1/1995   15:05      0.0000    
RAINFALL         1/1/1995   15:10      0.0000    
RAINFALL         1/1/1995   15:15      0.0000    
RAINFALL         1/1/1995   15:20      0.0000    
RAINFALL         1/1/1995   15:25      0.0000    
RAINFALL         1/1/1995   15:30      0.0000    
RAINFALL         1/1/1995   15:35      0.0000    
RAINFALL         1/1/1995   15:40      0.0000    
RAINFALL         1/1/1995   15:45      0.0000    
RAINFALL         1/1/1995   15:50      0.0000    
RAINFALL         1/1/1995   15:55      0.0000    
RAINFALL         1/1/1995   16:00      0.0000    
RAINFALL         1/1/1995   16:05      0.0000    
RAINFALL         1/1/1995   16:10      0.0000    
RAINFALL         1/1/1995   16:15      0.0000    
RAINFALL         1/1/1995   16:20      0.0000    
RAINFALL         1/1/1995   16:25      0.0000    
RAINFALL         1/1/1995   16:30      0.0000    
RAINFALL         1/1/1995   16:35      0.0000    
RAINFALL         1/1/1995   16:40      0.0000    
RAINFALL         1/1/1995   16:45      0.0000    
RAINFALL         1/1/1995   16:50      0.0000    
RAINFALL         1/1/1995   16:55      0.0000    
RAINFALL         1/1/1995   17:00      0.0000    
RAINFALL         1/1/1995   17:05      0.0000    
RAINFALL         1/1/1995   17:10      0.0000    
RAINFALL         1/1/1995   17:15      0.0000    
RAINFALL         1/1/1995   17:20      0.0000    
RAINFALL         1/1/1995   17:25      0.0000    
RAINFALL         1/1/1995   17:30      0.0000    
RAINFALL         1/1/1995   17:35      0.0000    
RAINFALL         1/1/1995   17:40      0.0000    
RAINFALL         1/1/1995   17:45      0.0000    
RAINFALL         1/1/1995   17:50      0.0000    
RAINFALL         1/1/1995   17:55      0.0000    
RAINFALL         1/1/1995   18:00      0.0000    
RAINFALL         1/1/1995   18:05      0.0000    
RAINFALL         1/1/1995   18:10      0.0000    
RAINFALL         1/1/1995   18:15      0.0000    
RAINFALL         1/1/1995   18:20      0.0000    
RAINFALL         1/1/1995   18:25      0.0000    
RAINFALL         1/1/1995   18:30      0.0000    
RAINFALL         1/1/1995   18:35      0.0000    
RAINFALL         1/1/1995   18:40      0.0000    
RAINFALL         1/1/1995   18:45      0.0000    
RAINFALL         1/1/1995   18:50      0.0000    
RAINFALL         1/1/1995   18:55      0.0000    
RAINFALL         1/1/1995   19:00      0.0000    
RAINFALL         1/1/1995   19:05      0.0000    
RAINFALL         1/1/1995   19:10      0.0000    
RAINFALL         1/1/1995   19:15      0.0000    
RAINFALL         1/1/1995   19:20      0.0000    
RAINFALL         1/1/1995   19:25      0.0000    
RAINFALL         1/1/1995   19:30      0.0000    
RAINFALL         1/1/1995   19:35      0.0000    
RAINFALL         1/1/1995   19:40      0.0000    
RAINFALL         1/1/1995   19:45      0.0000    
RAINFALL         1/1/1995   19:50      0.0000    
RAINFALL         1/1/1995   19:55      0.0000    
RAINFALL         1/1/1995   20:00      0.0000    
RAINFALL         1/1/1995   20:05      0.0000    
RAINFALL         1/1/1995   20:10      0.0000    
RAINFALL         1/1/1995   20:15      0.0000    
RAINFALL         1/1/1995   20:20      0.0000    
RAINFALL         1/1/1995   20:25      0.0000    
RAINFALL         1/1/1995   20:30      0.0000    
RAINFALL         1/1/1995   20:35      0.0000    
RAINFALL         1/1/1995   20:40      0.0000    
RAINFALL         1/1/1995   20:45      0.0000    
RAINFALL         1/1/1995   20:50      0.0000    
RAINFALL         1/1/1995   20:55      0.0000    
RAINFALL         1/1/1995   21:00      0.0000    
RAINFALL         1/1/1995   21:05      0.0000    
RAINFALL         1/1/1995   21:10      0.0000    
RAINFALL         1/1/1995   21:15      0.0000    
RAINFALL         1/1/1995   21:20      0.0000    
RAINFALL         1/1/1995   21:25      0.0000    
RAINFALL         1/1/1995   21:30      0.0000    
RAINFALL         1/1/1995   21:35      0.0000    
RAINFALL         1/1/1995   21:40      0.0000    
RAINFALL         1/1/1995   21:45      0.0000    
RAINFALL         1/1/1995   21:50      0.0000    
RAINFALL         1/1/1995   21:55      0.0000    
RAINFALL         1/1/1995   22:00      0.0000    
RAINFALL         1/1/1995   22:05      0.0000    
RAINFALL         1/1/1995   22:10      0.0000    
RAINFALL         1/1/1995   22:15      0.0000    
RAINFALL         1/1/1995   22:20      0.0000    
RAINFALL         1/1/1995   22:25      0.0000    
RAINFALL         1/1/1995   22:30      0.0000    
RAINFALL         1/1/1995   22:35      0.0000    
RAINFALL         1/1/1995   22:40      0.0000    
RAINFALL         1/1/1995   22:45      0.0000    
RAINFALL         1/1/1995   22:50      0.0000    
RAINFALL         1/1/1995   22:55      0.0000    
RAINFALL         1/1/1995   23:00      0.0000    
RAINFALL         1/1/1995   23:05      0.0000    
RAINFALL         1/1/1995   23:10      0.0000    
RAINFALL         1/1/1995   23:15      0.0000    
RAINFALL         1/1/1995   23:20      0.0000    
RAINFALL         1/1/1995   23:25      0.0000    
RAINFALL         1/1/1995   23:30      0.0000    
RAINFALL         1/1/1995   23:35      0.0000    
RAINFALL         1/1/1995   23:40      0.0000    
RAINFALL         1/1/1995   23:45      0.0000    
RAINFALL         1/1/1995   23:50      0.0000    
RAINFALL         1/1/1995   23:55      0.0000    
RAINFALL         1/2/1995   00:00      0.0000    
RAINFALL         1/2/1995   00:05      0.0000    
RAINFALL         1/2/1995   00:10      0.0000    
RAINFALL         1/2/1995   00:15      0.0000    
RAINFALL         1/2/1995   00:20      0.0000    
RAINFALL         1/2/1995   00:25      0.0000    
RAINFALL         1/2/1995   00:30      0.0000    
RAINFALL         1/2/1995   00:35      0.0000    
RAINFALL         1/2/1995   00:40      0.0000    
RAINFALL         1/2/1995   00:45      0.0000    
RAINFALL         1/2/1995   00:50      0.0000    
RAINFALL         1/2/1995   00:55      0.0000    
RAINFALL         1/2/1995   01:00      0.0000    
RAINFALL         1/2/1995   01:05      0.0000    
RAINFALL         1/2/1995   01:10      0.0000    
RAINFALL         1/2/1995   01:15      0.0000    
RAINFALL         1/2/1995   01:20      0.0000    
RAINFALL         1/2/1995   01:25      0.0000    
RAINFALL         1/2/1995   01:30      0.0000    
RAINFALL         1/2/1995   01:35      0.0000    
RAINFALL         1/2/1995   01:40      0.0000    
RAINFALL         1/2/1995   01:45      0.0000    
RAINFALL         1/2/1995   01:50      0.0000    
RAINFALL         1/2/1995   01:55      0.0000    
RAINFALL         1/2/1995   02:00      0.0000    
RAINFALL         1/2/1995   02:05      0.0000    
RAINFALL         1/2/1995   02:10      0.0000    
RAINFALL         1/2/1995   02:15      0.0000    
RAINFALL         1/2/1995   02:20      0.0000    
RAINFALL         1/2/1995   02:25      0.0000    
RAINFALL         1/2/1995   02:30      0.0000    
RAINFALL         1/2/1995   02:35      0.0000    
RAINFALL         1/2/1995   02:40      0.0000    
RAINFALL         1/2/1995   02:45      0.0000    
RAINFALL         1/2/1995   02:50      0.0000    
RAINFALL         1/2/1995   02:55      0.0000    
RAINFALL         1/2/1995   03:00      0.0000    
RAINFALL         1/2/1995   03:05      0.0000    
RAINFALL         1/2/1995   03:10      0.0000    
RAINFALL         1/2/1995   03:15      0.0000    
RAINFALL         1/2/1995   03:20      0.0000    
RAINFALL         1/2/1995   03:25      0.0000    
RAINFALL         1/2/1995   03:30      0.0000    
RAINFALL         1/2/1995   03:35      0.0000    
RAINFALL         1/2/1995   03:40      0.0000    
RAINFALL         1/2/1995   03:45      0.0000    
RAINFALL         1/2/1995   03:50      0.0000    
RAINFALL         1/2/1995   03:55      0.0000    
RAINFALL         1/2/1995   04:00      0.0000    
RAINFALL         1/2/1995   04:05      0.0000    
RAINFALL         1/2/1995   04:10      0.0000    
RAINFALL         1/2/1995   04:15      0.0000    
RAINFALL         1/2/1995   04:20      0.0000    
RAINFALL         1/2/1995   04:25      0.0000    
RAINFALL         1/2/1995   04:30      0.0000    
RAINFALL         1/2/1995   04:35      0.0000    
RAINFALL         1/2/1995   04:40      0.0000    
RAINFALL         1/2/1995   04:45      0.0000    
RAINFALL         1/2/1995   04:50      0.0000    
RAINFALL         1/2/1995   04:55      0.0000    
RAINFALL         1/2/1995   05:00      0.0000    
RAINFALL         1/2/1995   05:05      0.0000    
RAINFALL         1/2/1995   05:10      0.0000    
RAINFALL         1/2/1995   05:15      0.0000    
RAINFALL         1/2/1995   05:20      0.0000    
RAINFALL         1/2/1995   05:25      0.0000    
RAINFALL         1/2/1995   05:30      0.0000    
RAINFALL         1/2/1995   05:35      0.0000    
RAINFALL         1/2/1995   05:40      0.0000    
RAINFALL         1/2/1995   05:45      0.0000    
RAINFALL         1/2/1995   05:50      0.0000    
RAINFALL         1/2/1995   05:55      0.0000    
RAINFALL         1/2/1995   06:00      0.0000    
RAINFALL         1/2/1995   06:05      0.0000    
RAINFALL         1/2/1995   06:10      0.0000    
RAINFALL         1/2/1995   06:15      0.0000    
RAINFALL         1/2/1995   06:20      0.0000    
RAINFALL         1/2/1995   06:25      0.0000    
RAINFALL         1/2/1995   06:30      0.0000    
RAINFALL         1/2/1995   06:35      0.0000    
RAINFALL         1/2/1995   06:40      0.0000    
RAINFALL         1/2/1995   06:45      0.0000    
RAINFALL         1/2/1995   06:50      0.0000    
RAINFALL         1/2/1995   06:55      0.0000    
RAINFALL         1/2/1995   07:00      0.0000    
RAINFALL         1/2/1995   07:05      0.0000    
RAINFALL         1/2/1995   07:10      0.0000    
RAINFALL         1/2/1995   07:15      0.0000    
RAINFALL         1/2/1995   07:20      0.0000    
RAINFALL         1/2/1995   07:25      0.0000    
RAINFALL         1/2/1995   07:30      0.0000    
RAINFALL         1/2/1995   07:35      0.0000    
RAINFALL         1/2/1995   07:40      0.0000    
RAINFALL         1/2/1995   07:45      0.0000    
RAINFALL         1/2/1995   07:50      0.0000    
RAINFALL         1/2/1995   07:55      0.0000    
RAINFALL         1/2/1995   08:00      0.0000    
RAINFALL         1/2/1995   08:05      0.0000    
RAINFALL         1/2/1995   08:10      0.0000    
RAINFALL         1/2/1995   08:15      0.0000    
RAINFALL         1/2/1995   08:20      0.0000    
RAINFALL         1/2/1995   08:25      0.0000    
RAINFALL         1/2/1995   08:30      0.0000    
RAINFALL         1/2/1995   08:35      0.0000    
RAINFALL         1/2/1995   08:40      0.0000    
RAINFALL         1/2/1995   08:45      0.0000    
RAINFALL         1/2/1995   08:50      0.0000    
RAINFALL         1/2/1995   08:55      0.0000    
RAINFALL         1/2/1995   09:00      0.0000    
RAINFALL         1/2/1995   09:05      0.0000    
RAINFALL         1/2/1995   09:10      0.0000    
RAINFALL         1/2/1995   09:15      0.0000    
RAINFALL         1/2/1995   09:20      0.0000    
RAINFALL         1/2/1995   09:25      0.0000    
RAINFALL         1/2/1995   09:30      0.0000    
RAINFALL         1/2/1995   09:35      0.0000    
RAINFALL         1/2/1995   09:40      0.0000    
RAINFALL         1/2/1995   09:45      0.0000    
RAINFALL         1/2/1995   09:50      0.0000    
RAINFALL         1/2/1995   09:55      0.0000    
RAINFALL         1/2/1995   10:00      0.0000    
RAINFALL         1/2/1995   10:05      0.0000    
RAINFALL         1/2/1995   10:10      0.0000    
RAINFALL         1/2/1995   10:15      0.0000    
RAINFALL         1/2/1995   10:20      0.0000    
RAINFALL         1/2/1995   10:25      0.0000    
RAINFALL         1/2/1995   10:30      0.0000    
RAINFALL         1/2/1995   10:35      0.0000    
RAINFALL         1/2/1995   10:40      0.0000    
RAINFALL         1/2/1995   10:45      0.0000    
RAINFALL         1/2/1995   10:50      0.0000    
RAINFALL         1/2/1995   10:55      0.0000    
RAINFALL         1/2/1995   11:00      0.0000    
RAINFALL         1/2/1995   11:05      0.0000    
RAINFALL         1/2/1995   11:10      0.0000    
RAINFALL         1/2/1995   11:15      0.0000    
RAINFALL         1/2/1995   11:20      0.0000    
RAINFALL         1/2/1995   11:25      0.0000    
RAINFALL         1/2/1995   11:30      0.0000    
RAINFALL         1/2/1995   11:35      0.0000    
RAINFALL         1/2/1995   11:40      0.0000    
RAINFALL         1/2/1995   11:45      0.0000    
RAINFALL         1/2/1995   11:50      0.0000    
RAINFALL         1/2/1995   11:55      0.0000    
RAINFALL         1/2/1995   12:00      0.0000    
RAINFALL         1/2/1995   12:05      0.0000    
RAINFALL         1/2/1995   12:10      0.0000    
RAINFALL         1/2/1995   12:15      0.0000    
RAINFALL         1/2/1995   12:20      0.0000    
RAINFALL         1/2/1995   12:25      0.0000    
RAINFALL         1/2/1995   12:30      0.0000    
RAINFALL         1/2/1995   12:35      0.0000    
RAINFALL         1/2/1995   12:40      0.0000    
RAINFALL         1/2/1995   12:45      0.0000    
RAINFALL         1/2/1995   12:50      0.0000    
RAINFALL         1/2/1995   12:55      0.0000    
RAINFALL         1/2/1995   13:00      0.0000    
RAINFALL         1/2/1995   13:05      0.0000    
RAINFALL         1/2/1995   13:10      0.0000    
RAINFALL         1/2/1995   13:15      0.0000    
RAINFALL         1/2/1995   13:20      0.0000    
RAINFALL         1/2/1995   13:25      0.0000    
RAINFALL         1/2/1995   13:30      0.0000    
RAINFALL         1/2/1995   13:35      0.0000    
RAINFALL         1/2/1995   13:40      0.0000    
RAINFALL         1/2/1995   13:45      0.0000    
RAINFALL         1/2/1995   13:50      0.0000    
RAINFALL         1/2/1995   13:55      0.0000    
RAINFALL         1/2/1995   14:00      0.0000    
RAINFALL         1/2/1995   14:05      0.0000    
RAINFALL         1/2/1995   14:10      0.0000    
RAINFALL         1/2/1995   14:15      0.0000    
RAINFALL         1/2/1995   14:20      0.0000    
RAINFALL         1/2/1995   14:25      0.0000    
RAINFALL         1/2/1995   14:30      0.0000    
RAINFALL         1/2/1995   14:35      0.0000    
RAINFALL         1/2/1995   14:40      0.0000    
RAINFALL         1/2/1995   14:45      0.0000    
RAINFALL         1/2/1995   14:50      0.0000    
RAINFALL         1/2/1995   14:55      0.0000    
RAINFALL         1/2/1995   15:00      0.0000    
RAINFALL         1/2/1995   15:05      0.0000    
RAINFALL         1/2/1995   15:10      0.0000    
RAINFALL         1/2/1995   15:15      0.0000    
RAINFALL         1/2/1995   15:20      0.0000    
RAINFALL         1/2/1995   15:25      0.0000    
RAINFALL         1/2/1995   15:30      0.0000    
RAINFALL         1/2/1995   15:35      0.0000    
RAINFALL         1/2/1995   15:40      0.0000    
RAINFALL         1/2/1995   15:45      0.0000    
RAINFALL         1/2/1995   15:50      0.0000    
RAINFALL         1/2/1995   15:55      0.0000    
RAINFALL         1/2/1995   16:00      0.0000    
RAINFALL         1/2/1995   16:05      0.0000    
RAINFALL         1/2/1995   16:10      0.0000    
RAINFALL         1/2/1995   16:15      0.0000    
RAINFALL         1/2/1995   16:20      0.0000    
RAINFALL         1/2/1995   16:25      0.0000    
RAINFALL         1/2/1995   16:30      0.0000    
RAINFALL         1/2/1995   16:35      0.0000    
RAINFALL         1/2/1995   16:40      0.0000    
RAINFALL         1/2/1995   16:45      0.0000    
RAINFALL         1/2/1995   16:50      0.0000    
RAINFALL         1/2/1995   16:55      0.0000    
RAINFALL         1/2/1995   17:00      0.0000    
RAINFALL         1/2/1995   17:05      0.0000    
RAINFALL         1/2/1995   17:10      0.0000    
RAINFALL         1/2/1995   17:15      0.0000    
RAINFALL         1/2/1995   17:20      0.0000    
RAINFALL         1/2/1995   17:25      0.0000    
RAINFALL         1/2/1995   17:30      0.0000    
RAINFALL         1/2/1995   17:35      0.0000    
RAINFALL         1/2/1995   17:40      0.0000    
RAINFALL         1/2/1995   17:45      0.0000    
RAINFALL         1/2/1995   17:50      0.0000    
RAINFALL         1/2/1995   17:55      0.0000    
RAINFALL         1/2/1995   18:00      0.0000    
RAINFALL         1/2/1995   18:05      0.0000    