[TITLE]
;;Project Title/Notes

[OPTIONS]
;;Option             Value
FLOW_UNITS           CMS
INFILTRATION         MODIFIED_GREEN_AMPT
FLOW_ROUTING         DYNWAVE
LINK_OFFSETS         DEPTH
MIN_SLOPE            0
ALLOW_PONDING        NO
SKIP_STEADY_STATE    NO

START_DATE           07/06/1992
START_TIME           00:00:00
REPORT_START_DATE    07/06/1992
REPORT_START_TIME    00:00:00
END_DATE             07/07/1992
END_TIME             06:00:00
SWEEP_START          01/01
SWEEP_END            12/31
DRY_DAYS             0
REPORT_STEP          00:15:00
WET_STEP             00:05:00
DRY_STEP             01:00:00
ROUTING_STEP         0:00:30 
RULE_STEP            00:00:00

INERTIAL_DAMPING     PARTIAL
NORMAL_FLOW_LIMITED  BOTH
FORCE_MAIN_EQUATION  H-W
VARIABLE_STEP        0.75
LENGTHENING_STEP     5
MIN_SURFAREA         1.14
MAX_TRIALS           8
HEAD_TOLERANCE       0.0015
SYS_FLOW_TOL         5
LAT_FLOW_TOL         5
MINIMUM_STEP         0
THREADS              1

[EVAPORATION]
;;Data Source    Parameters
;;-------------- ----------------
CONSTANT         0.0
DRY_ONLY         NO

[RAINGAGES]
;;Name           Format    Interval SCF      Source    
;;-------------- --------- ------ ------ ----------
Gage1            INTENSITY 1:00     1.0      TIMESERIES MyStorm         

[SUBCATCHMENTS]
;;Name           Rain Gage        Outlet           Area     %Imperv  Width    %Slope   CurbLen  SnowPack        
;;-------------- ---------------- ---------------- -------- -------- -------- -------- -------- ----------------
S3               Gage1            j10              25.626   67.97    209      1.058    0                        
S4               Gage1            j1               45.280   63.55    383      1.403    0                        
S5               Gage1            j11              15.025   50.86    173      1.610    0                        
S6               Gage1            j9               7.190    71.16    152      4.240    0                        
S7               Gage1            j7               19.152   65.90    378      1.403    0                        
S9               Gage1            j14              17.145   52.86    221      3.645    0                        
S10              Gage1            j16              15.762   44.65    205      1.152    0                        
S11              Gage1            S13              11.338   59.52    130      2.791    0                        
S20              Gage1            j22              11.337   74.41    126      2.291    0                        
S22              Gage1            j27              22.583   333.67   203      4.432    0                        
S23              Gage1            j27              32.445   31.67    263      2.15     0                        
S24              Gage1            j27              3.779    49.94    59       6.891    0                        
S25              Gage1            j28              16.960   65.08    187      1.485    0                        
S26              Gage1            j31              28.850   70.43    221      1.933    0                        
S27              Gage1            j32              14.563   77.50    163      3.429    0                        
S28              Gage1            j24              3.687    83.49    140      4.679    0                        
S29              Gage1            j25              1.659    81.49    64       7.838    0                        
S30              Gage1            j20              26.859   69.31    199      3.74     0                        
S31              Gage1            j18              29.035   63.79    215      4.69     0                        
S38              Gage1            O-fall4          43.137   60.31    290      3.558    0                        
S40              Gage1            j46              39.910   64.48    197      4.643    0                        
S41              Gage1            j43              21.476   68.21    259      3.822    0                        
S42              Gage1            o-fall5          9.678    59.70    173      4.063    0                        
S44              Gage1            s43              10.231   60.60    175      3.596    0                        
S46              Gage1            j37              32.352   82.43    277      1.362    0                        
S47              Gage1            j37              17.604   67.87    171      0.997    0                        
S48              Gage1            j40              29.402   64.37    227      2.949    0                        
S49              Gage1            j42              19.448   63.51    188      3.584    0                        
S50              Gage1            j41              28.388   74.90    236      2.342    0                        
S79              Gage1            j53              25.807   66.77    215      5.591    0                        
S84              Gage1            j58              38.985   52.77    309      1.941    0                        
S85              Gage1            j57              33.548   52.17    260      6.096    0                        
S86              Gage1            j55              18.986   71.93    189      4.631    0                        
S87              Gage1            J54              19.170   69.91    227      4.104    0                        
S51              Gage1            j50              45.071   58.30    375      5.589    0                        
S13              Gage1            J15              22.399   71.34    280      3.196    0                        
S12              Gage1            J23              0.369    79.62    34       8.012    0                        
S39              Gage1            S42              37.202   67.19    244      3.74     0                        
S18              Gage1            J9               16.684   57.98    167      2.863    0                        
S16              Gage1            S19              2.765    75       102      7.704    0                        
S19              Gage1            j26              36.778   55.34    258      3.602    0                        
S78              Gage1            S83              31.798   57.97    267      6.096    0                        
S14              Gage1            J17              34.843   31.73    309      1.158    0                        
S15              Gage1            O-fall3          26.454   46.47    178      3.696    0                        
S81              Gage1            J58              39.816   48.36    323      2.898    0                        
S83              Gage1            j60              13.733   59.82    242      6.609    0                        
S82              Gage1            j59              4.885    68.70    92       5.632    0                        
S80              Gage1            S82              7.558    55.50    123      7.252    0                        
S45              Gage1            j39              33.919   57.12    232      3.678    0                        
S43              Gage1            S45              1.567    50.43    62       8.005    0                        

[SUBAREAS]
;;Subcatchment   N-Imperv   N-Perv     S-Imperv   S-Perv     PctZero    RouteTo    PctRouted 
;;-------------- ---------- ---------- ---------- ---------- ---------- ---------- ----------
S3               0.011      0.05       0          0          25         OUTLET    
S4               0.011      0.05       0          0          25         OUTLET    
S5               0.011      0.05       0          0          25         OUTLET    
S6               0.011      0.05       0          0          25         OUTLET    
S7               0.011      0.05       0          0          25         OUTLET    
S9               0.011      0.05       0          0          25         OUTLET    
S10              0.011      0.05       0          0          25         OUTLET    
S11              0.011      0.05       0          0          25         OUTLET    
S20              0.011      0.05       0          0          25         OUTLET    
S22              0.011      0.05       0          0          25         OUTLET    
S23              0.011      0.05       0          0          25         OUTLET    
S24              0.011      0.05       0          0          25         OUTLET    
S25              0.011      0.05       0          0          25         OUTLET    
S26              0.011      0.05       0          0          25         OUTLET    
S27              0.011      0.05       0          0          25         OUTLET    
S28              0.011      0.05       0          0          25         OUTLET    
S29              0.011      0.05       0          0          25         OUTLET    
S30              0.011      0.05       0          0          25         OUTLET    
S31              0.011      0.05       0          0          25         OUTLET    
S38              0.011      0.05       0          0          25         OUTLET    
S40              0.011      0.05       0          0          25         OUTLET    
S41              0.011      0.05       0          0          25         OUTLET    
S42              0.011      0.05       0          0          25         OUTLET    
S44              0.011      0.05       0          0          25         OUTLET    
S46              0.011      0.05       0          0          25         OUTLET    
S47              0.011      0.05       0          0          25         OUTLET    
S48              0.011      0.05       0          0          25         OUTLET    
S49              0.011      0.05       0          0          25         OUTLET    
S50              0.011      0.05       0          0          25         OUTLET    
S79              0.011      0.05       0          0          25         OUTLET    
S84              0.011      0.05       0          0          25         OUTLET    
S85              0.011      0.05       0          0          25         OUTLET    
S86              0.011      0.05       0          0          25         OUTLET    
S87              0.011      0.05       0          0          25         OUTLET    
S51              0.011      0.05       0          0          25         OUTLET    
S13              0.011      0.05       0          0          25         OUTLET    
S12              0.011      0.05       0          0          25         OUTLET    
S39              0.011      0.05       0          0          25         OUTLET    
S18              0.011      0.05       0          0          25         OUTLET    
S16              0.011      0.05       0          0          25         OUTLET    
S19              0.011      0.05       0          0          25         OUTLET    
S78              0.011      0.05       0          0          25         OUTLET    
S14              0.011      0.05       0          0          25         OUTLET    
S15              0.011      0.05       0          0          25         OUTLET    
S81              0.011      0.05       0          0          25         OUTLET    
S83              0.011      0.05       0          0          25         OUTLET    
S82              0.011      0.05       0          0          25         OUTLET    
S80              0.011      0.05       0          0          25         OUTLET    
S45              0.011      0.05       0          0          25         OUTLET    
S43              0.011      0.05       0          0          25         OUTLET    

[INFILTRATION]
;;Subcatchment   Suction    Ksat       IMD       
;;-------------- ---------- ---------- ----------
S3               9.41       0.02       0.321     
S4               9.41       0.02       0.321     
S5               9.41       0.02       0.321     
S6               9.41       0.02       0.321     
S7               9.41       0.02       0.321     
S9               9.41       0.02       0.321     
S10              9.41       0.02       0.321     
S11              9.41       0.02       0.321     
S20              9.41       0.02       0.321     
S22              9.41       0.02       0.321     
S23              9.41       0.02       0.321     
S24              9.41       0.02       0.321     
S25              9.41       0.02       0.321     
S26              9.41       0.02       0.321     
S27              9.41       0.02       0.321     
S28              9.41       0.02       0.321     
S29              9.41       0.02       0.321     
S30              9.41       0.02       0.321     
S31              9.41       0.02       0.321     
S38              9.41       0.02       0.321     
S40              9.41       0.02       0.321     
S41              9.41       0.02       0.321     
S42              9.41       0.02       0.321     
S44              9.41       0.02       0.321     
S46              9.41       0.02       0.321     
S47              8.22       0.04       0.309     
S48              9.41       0.02       0.321     
S49              9.41       0.02       0.321     
S50              9.41       0.02       0.321     
S79              9.41       0.02       0.321     
S84              9.41       0.02       0.321     
S85              9.41       0.02       0.321     
S86              9.41       0.02       0.321     
S87              9.41       0.02       0.321     
S51              9.41       0.02       0.321     
S13              9.41       0.02       0.321     
S12              9.41       0.02       0.321     
S39              9.41       0.02       0.321     
S18              9.41       0.02       0.321     
S16              9.41       0.02       0.321     
S19              9.41       0.02       0.321     
S78              8.22       0.04       0.309     
S14              9.41       0.02       0.321     
S15              9.41       0.02       0.321     
S81              9.41       0.02       0.321     
S83              9.41       0.02       0.321     
S82              9.41       0.02       0.321     
S80              8.22       0.04       0.309     
S45              9.41       0.02       0.321     
S43              9.41       0.02       0.321     

[JUNCTIONS]
;;Name           Elevation  MaxDepth   InitDepth  SurDepth   Aponded   
;;-------------- ---------- ---------- ---------- ---------- ----------
J5               2142.83    1.18       0          0.375      0         
J10              2121.90    1.10       0          0.300      0         
J11              2116.90    1.10       0          0.300      0         
J6               2134.83    1.18       0          0.375      0         
J7               2126.83    1.18       0          0.450      0         
J8               2120.83    1.18       0          0.450      0         
J9               2113.83    1.18       0          0.450      0         
J12              2110.90    1.10       0          0.300      0         
J13              2104.90    1.10       0          0.300      0         
J14              2101.90    1.10       0          0.375      0         
J15              2097.90    1.10       0          0.375      0         
J16              2124.05    0          0          0.150      0         
J17              2114.05    0          0          0.225      0         
J18              2134.90    1.10       0          0.300      0         
J19              2130.90    1.10       0          0.300      0         
J20              2127.90    1.10       0          0.450      0         
J21              2123.90    1.10       0          0.450      0         
J1               2161.83    1.18       0          0.375      0         
J2               2158.83    1.18       0          0.375      0         
J3               2156.83    1.18       0          0.375      0         
J4               2148.83    1.18       0          0.375      0         
J43              2087.10    0          0          0.100      0         
J44              2082.10    0          0          0.100      0         
J45              2079.10    0          0          0.100      0         
J46              2079.10    0          0          0.100      0         
J47              2079.10    0          0          0.100      0         
J48              2071.10    0          0          0.100      0         
J49              2062.10    0          0          0.100      0         
J50              2058.10    0          0          0.100      0         
J51              2051.10    0          0          0.100      0         
J52              2045.10    0          0          0.100      0         
J23              2080.90    1.10       0          0.300      0         
J24              2079.90    0          0          0.300      0         
J25              2077.90    1.10       0          0.300      0         
J26              2073.90    1.10       0          0.375      0         
J22              2081.90    1.10       0          0.300      0         
J32              2073.90    1.10       0          0.300      0         
J33              2069.90    1.10       0          0.300      0         
J34              2065.90    1.10       0          0.300      0         
J27              2093.90    1.10       0          0.300      0         
J28              2088.90    1.10       0          0.375      0         
J29              2085.90    1.10       0          0.375      0         
J30              2080.90    1.10       0          0.375      0         
J31              2077.90    1.10       0          0.375      0         
J35              2063.90    1.10       0          0.300      0         
J36              2062.90    1.10       0          0.300      0         
J37              2059.90    1.10       0          0.550      0         
J38              2057.90    1.10       0          0.550      0         
J39              2052.90    1.10       0          0.550      0         
J40              2045.90    1.10       0          0.550      0         
J41              2047.83    1.17       0          0.375      0         
J42              2044.83    1.17       0          0.375      0         
J54              2038.98    1.03       0          0.225      0         
J55              2033.98    1.03       0          0.300      0         
J56              2027.98    1.03       0          0.300      0         
J57              2021.98    1.03       0          0.400      0         
J58              2038.83    1.17       0          0.375      0         
J59              2033.83    1.17       0          0.375      0         
J60              2026.80    1.20       0          0.400      0         
J53              2038.10    0          0          0.100      0         

[OUTFALLS]
;;Name           Elevation  Type       Stage Data       Gated    Route To        
;;-------------- ---------- ---------- ---------------- -------- ----------------
O-fall2          2080.90    FREE                        NO                       
O-fall1          2099.83    FREE                        NO                       
O-fall3          2105.05    FREE                        NO                       
O-fall4          2108.90    FREE                        NO                       
O-fall7          2033.10    FREE                        NO                       
O-fall5          2067.90    FREE                        NO                       
O-fall6          2041.90    FREE                        NO                       
O-fall8          2019.98    FREE                        NO                       

[CONDUITS]
;;Name           From Node        To Node          Length     Roughness  InOffset   OutOffset  InitFlow   MaxFlow   
;;-------------- ---------------- ---------------- ---------- ---------- ---------- ---------- ---------- ----------
C1               J1               J2               146.45     0.013      0          0          0          0         
C2               J2               J3               153.97     0.013      0          0          0          0         
C3               J3               J4               194.39     0.013      0          0          0          0         
C4               J4               J5               194.4      0.013      0          0          0          0         
C5               J5               J6               143.18     0.013      0          0          0          0         
C6               J6               J7               143.17     0.013      0          0          0          0         
C7               J7               J8               197.89     0.013      0          0          0          0         
C8               J8               J9               191.88     0.013      0          0          0          0         
C9               J9               O-fall1          177.9      0.013      0          0          0          0         
C10              J10              J11              175.03     0.013      0          0          0          0         
C11              J11              J12              166.62     0.013      0          0          0          0         
C12              J12              J13              162.66     0.013      0          0          0          0         
C13              J13              J14              165.33     0.013      0          0          0          0         
C14              J14              J15              197.46     0.013      0          0          0          0         
C15              J15              O-fall2          193.29     0.013      0          0          0          0         
C16              J16              J17              140.42     0.013      0          0          0          0         
C17              J17              O-fall3          127.62     0.013      0          0          0          0         
C22              J22              J23              113.59     0.013      0          0          0          0         
C23              J23              J24              125.39     0.013      0          0          0          0         
C24              J24              J25              145.4      0.013      0          0          0          0         
C25              J25              J26              131.46     0.013      0          0          0          0         
C26              J26              O-fall5          110.33     0.013      0          0          0          0         
C18              J18              J19              182.63     0.013      0          0          0          0         
C19              J19              J20              177.73     0.013      0          0          0          0         
C20              J20              J21              172.35     0.013      0          0          0          0         
C21              J21              O-fall4          187.17     0.013      0          0          0          0         
C27              J27              J28              1844.28    0.013      0          0          0          0         
C28              J28              J29              165.63     0.013      0          0          0          0         
C29              J29              J30              172.49     0.013      0          0          0          0         
C30              J30              J31              153.48     0.013      0          0          0          0         
C31              J31              J34              147.54     0.013      0          0          0          0         
C32              J32              J33              125.16     0.013      0          0          0          0         
C33              J33              J34              120.3      0.013      0          0          0          0         
C34              J34              J35              121.46     0.013      0          0          0          0         
C35              J35              J36              135.13     0.013      0          0          0          0         
C36              J36              J37              107.09     0.013      0          0          0          0         
C37              J37              J38              107.11     0.013      0          0          0          0         
C38              J38              J39              152.14     0.013      0          0          0          0         
C39              J39              J40              134.26     0.013      0          0          0          0         
C40              J40              O-fall6          163.78     0.013      0          0          0          0         
C41              J41              J42              165.44     0.013      0          0          0          0         
C42              J42              O-fall6          160.56     0.013      0          0          0          0         
C43              J43              J44              131.49     0.013      0          0          0          0         
C44              J44              J45              120.92     0.013      0          0          0          0         
C45              J45              J46              103.46     0.013      0          0          0          0         
C46              J46              J47              108.86     0.013      0          0          0          0         
C47              J47              J48              122.81     0.013      0          0          0          0         
C48              J48              J49              129.78     0.013      0          0          0          0         
C49              J49              J50              156.36     0.013      0          0          0          0         
C50              J50              J51              173.88     0.013      0          0          0          0         
C51              J51              J52              171.76     0.013      0          0          0          0         
C52              J52              J53              181.25     0.013      0          0          0          0         
C53              J53              O-fall7          152.35     0.013      0          0          0          0         
C54              J54              J55              161.97     0.013      0          0          0          0         
C55              J55              J56              173.43     0.013      0          0          0          0         
C56              J56              J57              166.74     0.013      0          0          0          0         
C57              J57              O-fall8          121.71     0.013      0          0          0          0         
C58              J58              J59              135.39     0.013      0          0          0          0         
C59              J59              J60              126.99     0.013      0          0          0          0         
C60              J60              O-fall8          103.21     0.013      0          0          0          0         

[XSECTIONS]
;;Link           Shape        Geom1            Geom2      Geom3      Geom4      Barrels    Culvert   
;;-------------- ------------ ---------------- ---------- ---------- ---------- ---------- ----------
C1               CIRCULAR     1                0          0          0          1                    
C2               CIRCULAR     1                0          0          0          1                    
C3               CIRCULAR     1                0          0          0          1                    
C4               CIRCULAR     1                0          0          0          1                    
C5               CIRCULAR     1                0          0          0          1                    
C6               CIRCULAR     1                0          0          0          1                    
C7               CIRCULAR     1                0          0          0          1                    
C8               CIRCULAR     1                0          0          0          1                    
C9               CIRCULAR     1                0          0          0          1                    
C10              CIRCULAR     1                0          0          0          1                    
C11              CIRCULAR     1                0          0          0          1                    
C12              CIRCULAR     1                0          0          0          1                    
C13              CIRCULAR     1                0          0          0          1                    
C14              CIRCULAR     1                0          0          0          1                    
C15              CIRCULAR     1                0          0          0          1                    
C16              CIRCULAR     1                0          0          0          1                    
C17              CIRCULAR     1                0          0          0          1                    
C22              CIRCULAR     1                0          0          0          1                    
C23              CIRCULAR     1                0          0          0          1                    
C24              CIRCULAR     1                0          0          0          1                    
C25              CIRCULAR     1                0          0          0          1                    
C26              CIRCULAR     1                0          0          0          1                    
C18              CIRCULAR     1                0          0          0          1                    
C19              CIRCULAR     1                0          0          0          1                    
C20              CIRCULAR     1                0          0          0          1                    
C21              CIRCULAR     1                0          0          0          1                    
C27              CIRCULAR     1                0          0          0          1                    
C28              CIRCULAR     1                0          0          0          1                    
C29              CIRCULAR     1                0          0          0          1                    
C30              CIRCULAR     1                0          0          0          1                    