[TITLE]
;;Project Title/Notes

[OPTIONS]
;;Option             Value
FLOW_UNITS           CFS
INFILTRATION         HORTON
FLOW_ROUTING         DYNWAVE
LINK_OFFSETS         DEPTH
MIN_SLOPE            0
ALLOW_PONDING        NO
SKIP_STEADY_STATE    NO

START_DATE           06/02/2007
START_TIME           21:00:00
REPORT_START_DATE    06/03/2007
REPORT_START_TIME    21:00:00
END_DATE             06/05/2007
END_TIME             00:00:00
SWEEP_START          01/01
SWEEP_END            12/31
DRY_DAYS             5.000000
REPORT_STEP          00:05:00
WET_STEP             00:05:00
DRY_STEP             00:05:00
ROUTING_STEP         0:01:00 
RULE_STEP            00:00:00

INERTIAL_DAMPING     NONE
NORMAL_FLOW_LIMITED  SLOPE
FORCE_MAIN_EQUATION  H-W
VARIABLE_STEP        0.75
LENGTHENING_STEP     10
MIN_SURFAREA         12.557
MAX_TRIALS           8
HEAD_TOLERANCE       0.005
SYS_FLOW_TOL         5
LAT_FLOW_TOL         5
MINIMUM_STEP         0
THREADS              1

[EVAPORATION]
;;Data Source    Parameters
;;-------------- ----------------
CONSTANT         0.000000
DRY_ONLY         NO

[RAINGAGES]
;;Name           Format    Interval SCF      Source    
;;-------------- --------- ------ ------ ----------
; New Raingage
10_YR_STORM      VOLUME    0.250000 1.000000 TIMESERIES 10_YR_STORM     

[JUNCTIONS]
;;Name           Elevation  MaxDepth   InitDepth  SurDepth   Aponded   
;;-------------- ---------- ---------- ---------- ---------- ----------
; 15-2C-5
1                3483.410000 4.590000   0.000000   0.000000   500.000000
; 32-3-3E
1002             3841.680000 4.320000   0.000000   0.000000   500.000000
; 32-3-2E
1003             3829.850000 22.150000  0.000000   0.000000   500.000000
; M10226
10226            3709.000000 1.000000   0.000000   4500.000000 500.000000
; M10491
10491            3676.000000 1.000000   0.000000   4500.000000 500.000000
; M10522
10522            3701.000000 1.000000   0.000000   4500.000000 500.000000
; M10523
10523            3700.000000 1.000000   0.000000   4500.000000 500.000000
; M10527
10527            3713.000000 1.000000   0.000000   4500.000000 500.000000
; M10528
10528            3717.000000 1.000000   0.000000   4500.000000 500.000000
; 13-6C-1
1079             3956.900000 27.100000  0.000000   0.000000   500.000000
; 13-6C-2
1080             3968.050000 10.000000  0.000000   0.000000   500.000000
; 13-3D-1
1081             3972.900000 17.100000  0.000000   0.000000   500.000000
; 13-3A-1
1082             3987.910000 10.000000  0.000000   0.000000   500.000000
; 13-3D-2
1083             3981.400000 8.600000   0.000000   0.000000   500.000000
; 32-3-1F
1085             3954.190000 29.810000  0.000000   0.000000   500.000000
; 15-2B-8
114              3647.450000 28.550000  0.000000   0.000000   500.000000
; 15-2B-9
115              3649.090000 26.910000  0.000000   0.000000   500.000000
; 35-44-3
1156             3506.610000 7.390000   0.000000   0.000000   500.000000
; 35-44-4
1157             3526.000000 6.000000   0.000000   0.000000   500.000000
; 35-44-5
1158             3544.300000 29.700000  0.000000   0.000000   500.000000
; 35-44-6
1159             3549.880000 24.120000  0.000000   0.000000   500.000000
; 15-2B-7
116              3642.430000 33.570000  0.000000   0.000000   500.000000
; 35-44-7
1160             3550.980000 31.020000  0.000000   0.000000   500.000000
; 35-44-8
1161             3551.770000 44.230000  0.000000   0.000000   500.000000
; 35-44-9
1162             3552.940000 10.000000  0.000000   0.000000   500.000000
; 35-44-15
1164             3567.260000 20.740000  0.000000   0.000000   500.000000
; 35-44-16
1165             3568.360000 10.000000  0.000000   0.000000   500.000000
; 15-2B-6
117              3637.060000 50.940000  0.000000   0.000000   500.000000
; 35-44-17
1173             3568.950000 15.050000  0.000000   0.000000   500.000000
; M11738
11738            3730.000000 1.000000   0.000000   4500.000000 500.000000
; 35-44-18
1174             3572.000000 10.000000  0.000000   0.000000   500.000000
; 35-44-2
1177             3499.950000 12.050000  0.000000   0.000000   500.000000
; 35-44-1
1178             3495.840000 10.000000  0.000000   0.000000   500.000000
; 44-3-1A
1179             3486.940000 5.060000   0.000000   0.000000   500.000000
; 15-2B-5
118              3631.160000 46.840000  0.000000   0.000000   500.000000
; 44-3-2A
1180             3487.130000 4.870000   0.000000   0.000000   500.000000
; 44-3-3A
1181             3487.540000 8.460000   0.000000   0.000000   500.000000
; 44-3-4A
1182             3487.820000 8.180000   0.000000   0.000000   500.000000
; 44-3-5A
1183             3510.410000 15.590000  0.000000   0.000000   500.000000
; 44-3-6A
1184             3514.200000 11.800000  0.000000   0.000000   500.000000
; M11886
11886            3498.000000 1.000000   0.000000   4500.000000 500.000000
; 15-2B-4
119              3621.450000 28.550000  0.000000   0.000000   500.000000
; M11911
11911            3658.000000 1.000000   0.000000   4500.000000 500.000000
; M11913
11913            3681.000000 1.000000   0.000000   4500.000000 500.000000
; M11941
11941            3745.000000 1.000000   0.000000   4500.000000 500.000000
; 15-2B-3
120              3607.080000 44.920000  0.000000   0.000000   500.000000
; 15-2B-2
121              3592.330000 15.670000  0.000000   0.000000   500.000000
; M12190
12190            3441.000000 1.000000   0.000000   4500.000000 500.000000
; 15-2B-1
122              3581.380000 10.620000  0.000000   0.000000   500.000000
; M12215
12215            3405.000000 1.000000   0.000000   4500.000000 500.000000
; M12254
12254            3432.000000 1.000000   0.000000   4500.000000 500.000000
; 44-3-2B
1226             3516.870000 9.130000   0.000000   0.000000   500.000000
; 44-3-1B
1227             3515.780000 10.220000  0.000000   0.000000   500.000000
; 44-3-7A
1228             3515.320000 10.680000  0.000000   0.000000   500.000000
; M12284
12284            3664.000000 1.000000   0.000000   4500.000000 500.000000
; M12288
12288            3681.000000 1.000000   0.000000   4500.000000 500.000000
; 44-3-5B
1229             3532.460000 5.540000   0.000000   0.000000   500.000000
; 44-3-3B
1231             3517.800000 6.200000   0.000000   0.000000   500.000000
; 44-3-4B
1232             3518.630000 5.370000   0.000000   0.000000   500.000000
; 46-5-1-6-1
1251             3535.840000 8.160000   0.000000   0.000000   500.000000
; 46-5-1-6-2
1254             3537.190000 6.810000   0.000000   0.000000   500.000000
; 1-6-1
1255             3538.620000 3.380000   0.000000   4500.000000 500.000000
; 50-26-6
1257             3803.680000 10.000000  0.000000   0.000000   500.000000
; 3-9-1A
1265             3800.820000 9.180000   0.000000   0.000000   500.000000
; 3-9-1B
1266             3800.520000 9.480000   0.000000   0.000000   500.000000
; 3-9-1
1267             3771.680000 2.320000   0.000000   0.000000   500.000000
; 3-9-2
1268             3759.690000 10.000000  0.000000   0.000000   500.000000
; 3-9-3
1269             3755.050000 4.950000   0.000000   0.000000   500.000000
; 57-22-3
1270             3802.940000 10.000000  0.000000   0.000000   500.000000
; 57-22-2
1271             3801.710000 8.290000   0.000000   0.000000   500.000000
; 57-22-1
1272             3801.260000 8.740000   0.000000   0.000000   500.000000
; 3-9-6A
1290             3713.610000 22.390000  0.000000   0.000000   500.000000
; 3-9-8
1291             3672.190000 10.000000  0.000000   0.000000   500.000000
; 3-9-7A
1292             3672.820000 10.000000  0.000000   0.000000   500.000000
; 3-9-7
1293             3701.190000 14.810000  0.000000   0.000000   500.000000
; 3-9-6
1294             3749.740000 10.000000  0.000000   0.000000   500.000000
; 3-9-5
1295             3753.550000 4.450000   0.000000   0.000000   500.000000
; 3-9-9
1297             3671.320000 10.000000  0.000000   0.000000   500.000000
; 3-9-4
1299             3754.070000 3.930000   0.000000   0.000000   500.000000
; 15-2H-1
130              3754.490000 29.510000  0.000000   0.000000   500.000000
; SIPH08A
13090            3351.630000 1.750000   0.000000   4500.000000 500.000000
; SIPH07A
13091            3335.630000 1.750000   0.000000   4500.000000 500.000000
; SIPH06A
13092            3345.130000 1.750000   0.000000   4500.000000 500.000000
; SIPH05A
13093            3345.630000 1.750000   0.000000   4500.000000 500.000000
; SIPH04A
13094            3350.630000 1.750000   0.000000   4500.000000 500.000000
; SIPH03A
13095            3353.630000 1.750000   0.000000   4500.000000 500.000000
; SIPH02A
13096            3360.630000 1.750000   0.000000   4500.000000 500.000000
; SIPH01A
13097            3365.130000 1.750000   0.000000   4500.000000 500.000000
; 32-3-3C
131              3800.330000 5.670000   0.000000   0.000000   500.000000
; 46-12-11A
1310             3866.700000 1.300000   0.000000   0.000000   500.000000
; 32-3-1A
132              3763.940000 34.060000  0.000000   0.000000   500.000000
; 3-9-10
1343             3669.520000 10.000000  0.000000   0.000000   500.000000
; 3-9-14
1347             3665.300000 10.000000  0.000000   0.000000   500.000000
; 3-9-13
1348             3666.700000 10.000000  0.000000   0.000000   500.000000
; 3-9-12
1349             3667.870000 10.000000  0.000000   0.000000   500.000000
; 3-9-11
1350             3668.640000 10.000000  0.000000   0.000000   500.000000
; 46-5-1-14
1372             3528.150000 9.850000   0.000000   0.000000   500.000000
; 46-5-1-13
1373             3526.000000 4.000000   0.000000   0.000000   500.000000
; 46-5-1-12
1374             3524.000000 4.000000   0.000000   0.000000   500.000000
; 46-5-1-11
1375             3519.620000 8.380000   0.000000   0.000000   500.000000
; 46-5-1-10
1376             3518.820000 7.180000   0.000000   0.000000   500.000000
; 46-5-1-9
1377             3517.650000 8.350000   0.000000   0.000000   500.000000
; 46-5-1-8
1378             3516.000000 14.000000  0.000000   0.000000   500.000000
; 46-5-1-7
1379             3514.800000 13.200000  0.000000   0.000000   500.000000
; 58-34-10
1408             3480.930000 7.070000   0.000000   0.000000   500.000000
; 34-59-13
1409             3474.440000 3.560000   0.000000   0.000000   500.000000
; 34-59-14
1410             3476.190000 21.810000  0.000000   0.000000   500.000000
; 34-59-15
1411             3477.810000 16.190000  0.000000   0.000000   500.000000
; 46-5-1B
1412             3528.750000 9.250000   0.000000   0.000000   500.000000
; 46-5-1A
1413             3528.550000 9.450000   0.000000   0.000000   500.000000
; 46-5-15B
1414             3529.370000 12.630000  0.000000   0.000000   500.000000
; 46-5-15A
1415             3529.480000 12.520000  0.000000   0.000000   500.000000
; 46-5-15
1416             3529.680000 12.320000  0.000000   0.000000   500.000000
; 46-5-16
1417             3531.270000 16.730000  0.000000   0.000000   500.000000
; 46-5-17
1418             3532.960000 7.040000   0.000000   0.000000   500.000000
; 15-2B-10
144              3650.540000 27.460000  0.000000   0.000000   500.000000
; 30-33-A9
1450             3505.050000 10.950000  0.000000   0.000000   500.000000
; 30-33-A7
1451             3497.740000 4.260000   0.000000   0.000000   500.000000
; 57-11-1
1459             3501.500000 12.500000  0.000000   0.000000   500.000000
; 57-11-2
1460             3500.390000 13.610000  0.000000   0.000000   500.000000
; 43-22C-B6
1464             3536.980000 19.020000  0.000000   0.000000   500.000000
; 43-22C-B7
1465             3537.590000 18.410000  0.000000   0.000000   500.000000
; 43-22C-B8
1466             3537.900000 18.100000  0.000000   0.000000   500.000000
; 43-22B-A14
1473             3532.200000 9.900000   0.000000   0.000000   500.000000
; 30-33F-A13
1474             3525.650000 10.000000  0.000000   0.000000   500.000000
; 43-22B-B1
1475             3533.190000 18.810000  0.000000   0.000000   500.000000
; 43-22B-B1.1
1476             3534.030000 19.970000  0.000000   0.000000   500.000000
; 43-22B-B2
1477             3534.310000 19.690000  0.000000   0.000000   500.000000
; 43-22B-B3
1478             3534.640000 23.360000  0.000000   0.000000   500.000000
; 43-22B-B4
1479             3535.020000 18.980000  0.000000   0.000000   500.000000
; 43-22B-B5
1480             3536.250000 19.750000  0.000000   0.000000   500.000000
; 30-33F-A12
1489             3518.780000 3.220000   0.000000   0.000000   500.000000
; 30-33F-A11
1490             3514.900000 11.100000  0.000000   0.000000   500.000000
; 30-33F-A10
1492             3509.900000 6.100000   0.000000   0.000000   500.000000
; 15-2B-11
150              3651.900000 26.100000  0.000000   0.000000   500.000000
; 43-22-B9
1501             3538.550000 15.450000  0.000000   0.000000   500.000000
; 43-22-B10
1502             3539.050000 14.950000  0.000000   0.000000   500.000000
; 32-27-2
1504             3541.210000 14.790000  0.000000   0.000000   500.000000
; 32-27-1
1505             3539.620000 12.380000  0.000000   0.000000   500.000000
; 15-2B-12
151              3663.440000 24.560000  0.000000   0.000000   500.000000
; 15-2B-13
152              3673.910000 14.090000  0.000000   0.000000   500.000000
; 34-30B-B2
1521             3526.140000 1.860000   0.000000   0.000000   500.000000
; 15-2B-14
153              3684.560000 29.440000  0.000000   0.000000   500.000000
; 34-32F-K1
1531             3537.860000 10.140000  0.000000   0.000000   500.000000
; 15-2B-15
154              3695.770000 18.230000  0.000000   0.000000   500.000000
; 34-59-12
1540             3473.950000 6.050000   0.000000   0.000000   500.000000
; 34-59-10
1541             3473.230000 8.770000   0.000000   0.000000   500.000000
; 34-59-8
1542             3472.460000 9.540000   0.000000   0.000000   500.000000
; 34-59-7
1543             3472.210000 13.790000  0.000000   0.000000   500.000000
; 30-33-A2
1544             3473.360000 8.640000   0.000000   0.000000   500.000000
; 61-23-6
1547             3469.170000 8.830000   0.000000   0.000000   500.000000
; 15-2B-16
155              3709.520000 8.480000   0.000000   0.000000   500.000000
; 61-23-5
1554             3467.860000 6.140000   0.000000   0.000000   500.000000
; 61-23-4
1555             3466.530000 7.470000   0.000000   0.000000   500.000000
; 30-33-A6
1556             3491.810000 8.190000   0.000000   0.000000   500.000000
; 30-33-A5
1557             3483.430000 8.570000   0.000000   0.000000   500.000000
; 30-33-A3
1558             3482.200000 3.800000   0.000000   0.000000   500.000000
; 30-33-A4
1559             3482.860000 3.140000   0.000000   0.000000   500.000000
; 15-2B-17
156              3730.140000 10.000000  0.000000   0.000000   500.000000
; 34-59-6
1560             3471.840000 10.160000  0.000000   0.000000   500.000000
; 30-33-A1
1561             3472.590000 9.410000   0.000000   0.000000   500.000000
; 32-46-B1
1562             3483.180000 10.820000  0.000000   0.000000   500.000000
; 32-46-B2
1563             3481.800000 12.200000  0.000000   0.000000   500.000000
; 32-46-A2
1564             3479.100000 8.900000   0.000000   0.000000   500.000000
; 32-46-A1
1565             3471.790000 10.210000  0.000000   0.000000   500.000000
; 60-22-A2
1566             3484.800000 7.200000   0.000000   0.000000   500.000000
; 60-22-A1
1567             3489.000000 9.000000   0.000000   0.000000   500.000000
; 34-59-3
1569             3469.750000 4.250000   0.000000   0.000000   500.000000
; 15-2H-3
157              3736.570000 5.430000   0.000000   0.000000   500.000000
; 34-59-4
1570             3470.740000 3.260000   0.000000   0.000000   500.000000
; 34-59-5
1571             3471.620000 14.380000  0.000000   0.000000   500.000000
; 34-59-2
1572             3469.260000 10.740000  0.000000   0.000000   500.000000
; 34-59-1
1573             3468.920000 9.080000   0.000000   0.000000   500.000000
; 45-29-1
1574             3469.050000 8.950000   0.000000   0.000000   500.000000
; 32-21-A3
1578             3471.510000 14.490000  0.000000   0.000000   500.000000
; 15-2H-4
158              3737.560000 4.440000   0.000000   0.000000   500.000000
; 55-36-1
1582             3469.320000 10.680000  0.000000   0.000000   500.000000
; 15-2G-1
159              3741.180000 52.820000  0.000000   0.000000   500.000000
; A2-39
1591             3468.470000 9.530000   0.000000   0.000000   500.000000
; A2-38
1592             3466.730000 9.270000   0.000000   0.000000   500.000000
; 35-53-S1
1593             3466.500000 9.500000   0.000000   0.000000   500.000000
; A2-37
1594             3465.600000 10.400000  0.000000   0.000000   500.000000
; A2-36
1595             3464.240000 7.760000   0.000000   0.000000   500.000000
; A2-35
1596             3462.480000 10.520000  0.000000   0.000000   500.000000
; 62-7-1
1597             3492.930000 5.070000   0.000000   0.000000   500.000000
; 62-7-2
1598             3493.720000 4.280000   0.000000   0.000000   500.000000
; 15-2G-2
160              3745.030000 24.970000  0.000000   0.000000   500.000000
; 15-2G-3
161              3748.310000 73.690000  0.000000   0.000000   500.000000
; 42-27-A1
1614             3479.980000 12.020000  0.000000   0.000000   500.000000
; A2-42
1615             3479.380000 9.620000   0.000000   0.000000   500.000000
; A2-41
1627             3476.790000 8.210000   0.000000   0.000000   500.000000
; 42-1-6
1628             3474.860000 6.140000   0.000000   0.000000   500.000000
; 15-8-S1-10
1629             3474.890000 6.110000   0.000000   0.000000   500.000000
; 15-8-5
1631             3472.070000 7.930000   0.000000   0.000000   500.000000
; 15-8-6
1632             3473.180000 6.820000   0.000000   0.000000   500.000000
; 15-8-4
1633             3471.280000 8.720000   0.000000   0.000000   500.000000
; 15-8-7
1635             3473.390000 6.610000   0.000000   0.000000   500.000000
; 15-8-8
1636             3473.920000 4.080000   0.000000   0.000000   500.000000
; 15-8-9
1637             3474.220000 3.780000   0.000000   0.000000   500.000000
; 15-8-G1
1641             3473.540000 4.460000   0.000000   0.000000   500.000000
; A2-40
1642             3468.820000 16.180000  0.000000   0.000000   500.000000
; 35-53-S2
1643             3470.320000 7.680000   0.000000   0.000000   500.000000
; 35-53-S3
1644             3471.150000 8.850000   0.000000   0.000000   500.000000
; 59-19-4
1653             3478.030000 9.970000   0.000000   0.000000   500.000000
; 59-36-1
1654             3480.480000 7.520000   0.000000   0.000000   500.000000
; 15-14-F2
1658             3473.890000 4.110000   0.000000   0.000000   500.000000
; 15-14-F3
1659             3474.170000 3.830000   0.000000   0.000000   500.000000
; 12-8-D1
1663             3497.430000 14.570000  0.000000   0.000000   500.000000
; B-2
1669             3496.590000 19.410000  0.000000   0.000000   500.000000
; 34-30-A.6
1670             3502.190000 9.810000   0.000000   0.000000   500.000000
; 34-30-A.8
1671             3504.320000 7.680000   0.000000   0.000000   500.000000
; A2-48
1672             3504.790000 7.210000   0.000000   0.000000   500.000000
; 34-30-A.9
1673             3508.780000 5.220000   0.000000   0.000000   500.000000
; A2-49
1674             3509.330000 8.670000   0.000000   0.000000   500.000000
; 34-30-A.11
1675             3511.430000 6.570000   0.000000   0.000000   500.000000
; 34-30-A.10
1676             3510.380000 7.620000   0.000000   0.000000   500.000000
; 34-30-A.7
1677             3503.440000 8.560000   0.000000   0.000000   500.000000
; B-3
1678             3497.670000 14.330000  0.000000   0.000000   500.000000
; A2-50
1679             3515.180000 6.820000   0.000000   0.000000   500.000000
; 34-30-A.12
1680             3513.740000 6.260000   0.000000   0.000000   500.000000
; 34-30B-B1
1681             3523.860000 4.140000   0.000000   0.000000   500.000000
; MH-0
1687             3494.010000 3.990000   0.000000   0.000000   500.000000
; MH-0
1689             3485.600000 2.400000   0.000000   0.000000   500.000000
; 15-2H-2
169              3747.670000 10.330000  0.000000   0.000000   500.000000
; MH-0
1691             3482.450000 5.550000   0.000000   0.000000   500.000000
; 34-30-A.2
1705             3485.650000 6.350000   0.000000   0.000000   500.000000
; A2-45
1706             3484.400000 6.600000   0.000000   0.000000   500.000000
; A2-44
1707             3483.380000 7.620000   0.000000   0.000000   500.000000
; 34-30-A.5
1708             3501.520000 10.480000  0.000000   0.000000   500.000000
; 34-30-A.4
1709             3499.820000 12.180000  0.000000   0.000000   500.000000
; 34-30-A.3
1710             3490.130000 10.000000  0.000000   0.000000   500.000000
; B-1
1711             3495.900000 16.100000  0.000000   0.000000   500.000000
; A2-47
1712             3500.660000 7.340000   0.000000   0.000000   500.000000
; A2-46
1713             3494.280000 11.720000  0.000000   0.000000   500.000000
; 13-5-B1
1715             3480.570000 11.430000  0.000000   0.000000   500.000000
; 15-7-5
1722             3479.740000 12.260000  0.000000   0.000000   500.000000
; 42-1-1
1723             3478.150000 5.850000   0.000000   0.000000   500.000000
; 42-1-3
1724             3476.100000 5.900000   0.000000   0.000000   500.000000
; 42-1-5
1727             3475.530000 4.470000   0.000000   0.000000   500.000000
; 46-23-4
1733             3475.040000 5.960000   0.000000   0.000000   500.000000
; A2-43
1746             3481.270000 9.730000   0.000000   0.000000   500.000000
; 42-8-A6
1751             3478.170000 9.830000   0.000000   0.000000   500.000000
; 42-8-A5
1752             3487.870000 10.130000  0.000000   0.000000   500.000000
; 42-8-A7
1753             3477.620000 6.380000   0.000000   0.000000   500.000000
; 42-8-A4
1756             3476.780000 25.220000  0.000000   0.000000   500.000000
; 30-13-A3
1758             3475.730000 6.270000   0.000000   0.000000   500.000000
; 30-13-A2
1759             3475.030000 6.970000   0.000000   0.000000   500.000000
; 30-13-A1
1760             3474.810000 7.190000   0.000000   0.000000   500.000000
; 48-17-A4
1762             3485.790000 12.210000  0.000000   0.000000   500.000000
; 48-17-A1
1764             3483.100000 6.900000   0.000000   0.000000   500.000000
; 48-17-A2
1765             3484.650000 5.350000   0.000000   0.000000   500.000000
; 48-17-A3
1767             3485.090000 4.910000   0.000000   0.000000   500.000000
; A2-28
1785             3436.750000 6.250000   0.000000   0.000000   500.000000
; A2-27
1786             3431.900000 5.100000   0.000000   0.000000   500.000000
; A2-26
1787             3428.580000 6.420000   0.000000   0.000000   500.000000
; 35-34-A2
1788             3463.230000 2.770000   0.000000   0.000000   500.000000
; A2-34
1789             3459.620000 6.380000   0.000000   0.000000   500.000000
; 35-34-A1
1790             3465.190000 4.810000   0.000000   0.000000   500.000000
; A2-33
1791             3456.820000 6.180000   0.000000   0.000000   500.000000
; A2-32
1792             3454.730000 6.270000   0.000000   0.000000   500.000000
; A2-31
1793             3452.490000 7.510000   0.000000   0.000000   500.000000
; A2-30
1794             3451.650000 6.350000   0.000000   0.000000   500.000000
; A2-29
1795             3450.870000 6.130000   0.000000   0.000000   500.000000
; 35-34-B1
1800             3465.790000 4.210000   0.000000   0.000000   500.000000
; 35-34-E1
1803             3467.430000 6.570000   0.000000   0.000000   500.000000
; 35-34-E2
1804             3470.810000 7.190000   0.000000   0.000000   500.000000
; 35-34-E3
1805             3471.360000 6.640000   0.000000   0.000000   500.000000
; 57-29-1
1807             3471.680000 6.320000   0.000000   0.000000   500.000000
; 57-29-2A
1812             3476.170000 9.830000   0.000000   0.000000   500.000000
; 57-29-3A
1813             3482.600000 3.400000   0.000000   0.000000   500.000000
; 57-29-5A
1814             3483.290000 2.710000   0.000000   0.000000   500.000000
; 57-29-1A
1816             3473.420000 4.580000   0.000000   0.000000   500.000000
; 60-32-9
1817             3484.540000 1.460000   0.000000   0.000000   500.000000
; 47-41-5
1827             3525.760000 4.240000   0.000000   0.000000   500.000000
; 47-41-3
1828             3524.240000 10.000000  0.000000   0.000000   500.000000
; 47-41-2
1829             3522.970000 3.030000   0.000000   0.000000   500.000000
; 47-41-1
1831             3522.130000 5.870000   0.000000   0.000000   500.000000
; 32-13-1
1845             3508.020000 1.980000   0.000000   0.000000   500.000000
; 42-8-A2
1853             3525.400000 6.600000   0.000000   0.000000   500.000000
; 42-8-A1
1854             3524.600000 9.400000   0.000000   0.000000   500.000000
; 42-8-4A
1856             3521.370000 12.630000  0.000000   0.000000   500.000000
; 42-8-3A
1858             3519.950000 6.050000   0.000000   0.000000   500.000000
; 42-8-1C
1859             3520.660000 7.340000   0.000000   0.000000   500.000000
; 42-8-2A
1860             3516.830000 10.000000  0.000000   0.000000   500.000000
; B1
1877             3536.270000 3.730000   0.000000   0.000000   500.000000
; A4
1878             3535.100000 6.900000   0.000000   0.000000   500.000000
; A3
1879             3534.350000 5.650000   0.000000   0.000000   500.000000
; A2
1880             3533.120000 2.880000   0.000000   0.000000   500.000000
; R3
1881             3532.680000 3.320000   0.000000   0.000000   500.000000
; MH-A2
1882             3536.530000 9.470000   0.000000   0.000000   500.000000
; MH-A3
1883             3536.750000 9.250000   0.000000   0.000000   500.000000
; MH-A4
1892             3537.150000 8.850000   0.000000   0.000000   500.000000
; MH-A5
1893             3538.270000 9.730000   0.000000   0.000000   500.000000
; MH-A6
1895             3540.350000 11.650000  0.000000   0.000000   500.000000
; MH-A7
1896             3542.070000 9.930000   0.000000   0.000000   500.000000
; MH-A8
1897             3542.640000 5.360000   0.000000   0.000000   500.000000
; NS-9
19               3596.000000 8.000000   0.000000   0.000000   500.000000
; E1
1923             3537.630000 6.370000   0.000000   0.000000   500.000000
; D1
1924             3538.230000 7.770000   0.000000   0.000000   500.000000
; 55-27-1
1928             3539.450000 8.550000   0.000000   0.000000   500.000000
; 55-27-2
1931             3540.250000 7.750000   0.000000   0.000000   500.000000
; 57-1-3
1936             3543.800000 8.200000   0.000000   0.000000   500.000000
; 57-1-1
1937             3542.130000 9.870000   0.000000   0.000000   500.000000
; 57-1-2
1938             3543.090000 8.910000   0.000000   0.000000   500.000000
; 57-1-5
1940             3545.480000 6.520000   0.000000   0.000000   500.000000
; 57-1-6
1941             3546.760000 7.240000   0.000000   0.000000   500.000000
; 64-32-4
1945             3550.260000 10.000000  0.000000   0.000000   500.000000
; 64-32-3
1950             3549.080000 2.920000   0.000000   0.000000   500.000000
; 64-32-2
1951             3547.930000 4.070000   0.000000   0.000000   500.000000
; 64-32-1
1952             3547.190000 6.810000   0.000000   0.000000   500.000000
; 2-32-1
1975             3562.450000 9.550000   0.000000   0.000000   500.000000
; 2-32-1A
1976             3565.070000 6.930000   0.000000   0.000000   500.000000
; 15-15-A
1977             3562.220000 9.780000   0.000000   0.000000   500.000000
; 2-32-2
1978             3568.530000 3.470000   0.000000   0.000000   500.000000
; 15-23-K1
1986             3554.410000 5.590000   0.000000   0.000000   500.000000
; 15-23-P7
1989             3553.910000 6.090000   0.000000   0.000000   500.000000
; 15-23-P5
1990             3559.150000 4.850000   0.000000   0.000000   500.000000
; 15-23-P2
1993             3561.070000 8.930000   0.000000   0.000000   500.000000
; 15-23-P3
1994             3560.530000 9.470000   0.000000   0.000000   500.000000
; 15-23-P4
1995             3560.180000 5.820000   0.000000   0.000000   500.000000
; 34-64B-1
2                3475.560000 4.440000   0.000000   0.000000   500.000000
; 2-32-3
2002             3574.870000 9.130000   0.000000   0.000000   500.000000
; 34-30-A.14
2003             3519.450000 2.550000   0.000000   0.000000   500.000000
; A2-51
2008             3520.000000 7.000000   0.000000   0.000000   500.000000
; 34-30-A.15
2009             3520.780000 7.220000   0.000000   0.000000   500.000000
; B-5
2022             3499.730000 24.270000  0.000000   0.000000   500.000000
; 34-30-A.13
2023             3517.150000 2.850000   0.000000   0.000000   500.000000
; B-4
2032             3498.590000 19.410000  0.000000   0.000000   500.000000
; 28-93-A1
2043             3500.590000 15.410000  0.000000   0.000000   500.000000
; 9-239-A1
2050             3499.710000 6.290000   0.000000   0.000000   500.000000
; 9-239-A5
2074             3503.880000 6.120000   0.000000   0.000000   500.000000
; 9-239-A4
2075             3503.140000 12.860000  0.000000   0.000000   500.000000
; 9-239-A3
2077             3501.920000 14.080000  0.000000   0.000000   500.000000
; 9-239-A2
2078             3501.210000 12.790000  0.000000   0.000000   500.000000
; 42-8-O4
2089             3493.430000 4.570000   0.000000   0.000000   500.000000
; 42-8-O3
2090             3494.170000 7.830000   0.000000   0.000000   500.000000
; 42-8-O2
2091             3501.270000 6.730000   0.000000   0.000000   500.000000
; 42-8-1A
2092             3506.920000 3.080000   0.000000   0.000000   500.000000
; 45-39-1
2093             3491.320000 6.680000   0.000000   0.000000   500.000000
; B-6
2096             3501.650000 30.350000  0.000000   0.000000   500.000000
; B-7
2097             3503.170000 6.830000   0.000000   0.000000   500.000000
; B-8
2098             3504.490000 5.510000   0.000000   0.000000   500.000000
; 46-40-J1
2099             3501.110000 30.890000  0.000000   0.000000   500.000000
; NS-8
21               3595.530000 8.470000   0.000000   0.000000   500.000000