[TITLE]
Scenario Run :  BASE
Carroll County Hydraulic Modeling - Calibrated Sept 2018

[OPTIONS]
;Option and Files Scenario Set: EVT-1, 11/28 to 12/3 Simulation Options
FLOW_UNITS	MGD
INFILTRATION	HORTON
FLOW_ROUTING	DYNWAVE
ALLOW_PONDING	YES
DRY_DAYS	5.000000
SKIP_STEADY_STATE 	NO
IGNORE_RAINFALL	NO
IGNORE_SNOWMELT	YES
IGNORE_GROUNDWATER	NO
IGNORE_QUALITY	YES
FORCE_MAIN_EQUATION	H-W
LINK_OFFSETS	DEPTH
MIN_SLOPE	0.250000
START_DATE	11/28/2016
START_TIME	00:00
END_DATE	12/03/2016
END_TIME	23:55
REPORT_START_DATE	11/28/2016
REPORT_START_TIME	00:00
SWEEP_START	01/01
SWEEP_END	12/31
WET_STEP	00:05:00
DRY_STEP	01:00:00
ROUTING_STEP	10
REPORT_STEP	00:05:00
INERTIAL_DAMPING	NONE
VARIABLE_STEP	0.900000
MINIMUM_STEP	10.000000
LENGTHENING_STEP	10
MIN_SURFAREA	0.000000
NORMAL_FLOW_LIMITED	SLOPE
MAX_TRIALS	6
HEAD_TOLERANCE	0.005000

[FILES]

[RAINGAGES]
RG0	VOLUME	0.083333	1.000000	FILE	"C:\Users\dickinsonre\Desktop\FreedomCal_11-9-18\FM0RainData.txt"	RG0	IN
RG1	VOLUME	0.083333	1.000000	FILE	"C:\Users\dickinsonre\Desktop\FreedomCal_11-9-18\FM1RainData.txt"	RG1	IN
RG10	VOLUME	0.083333	1.000000	FILE	"C:\Users\dickinsonre\Desktop\FreedomCal_11-9-18\FM10RainData.txt"	RG10	IN
RG11	VOLUME	0.083333	1.000000	FILE	"C:\Users\dickinsonre\Desktop\FreedomCal_11-9-18\FM11RainData.txt"	RG11	IN
RG12	VOLUME	0.083333	1.000000	FILE	"C:\Users\dickinsonre\Desktop\FreedomCal_11-9-18\FM12RainData.txt"	RG12	IN
RG13	VOLUME	0.083333	1.000000	FILE	"C:\Users\dickinsonre\Desktop\FreedomCal_11-9-18\FM13RainData.txt"	RG13	IN
RG14	VOLUME	0.083333	1.000000	FILE	"C:\Users\dickinsonre\Desktop\FreedomCal_11-9-18\FM14RainData.txt"	RG14	IN
RG2	VOLUME	0.083333	1.000000	FILE	"C:\Users\dickinsonre\Desktop\FreedomCal_11-9-18\FM2RainData.txt"	RG2	IN
RG3	VOLUME	0.083333	1.000000	FILE	"C:\Users\dickinsonre\Desktop\FreedomCal_11-9-18\FM3RainData.txt"	RG3	IN
RG4	VOLUME	0.083333	1.000000	FILE	"C:\Users\dickinsonre\Desktop\FreedomCal_11-9-18\FM4RainData.txt"	RG4	IN
RG5	VOLUME	0.083333	1.000000	FILE	"C:\Users\dickinsonre\Desktop\FreedomCal_11-9-18\FM5RainData.txt"	RG5	IN
RG6	VOLUME	0.083333	1.000000	FILE	"C:\Users\dickinsonre\Desktop\FreedomCal_11-9-18\FM6RainData.txt"	RG6	IN
RG7	VOLUME	0.083333	1.000000	FILE	"C:\Users\dickinsonre\Desktop\FreedomCal_11-9-18\FM7RainData.txt"	RG7	IN
RG8	VOLUME	0.083333	1.000000	FILE	"C:\Users\dickinsonre\Desktop\FreedomCal_11-9-18\FM8RainData.txt"	RG8	IN
RG9	VOLUME	0.083333	1.000000	FILE	"C:\Users\dickinsonre\Desktop\FreedomCal_11-9-18\FM9RainData.txt"	RG9	IN

[HYDROGRAPHS]
; 
0	RG1
0	ALL	Short	0.000001	5.000000	10.000000	0.100000	0.100000	0.000000
0	ALL	Medium	0.000000	5.000000	5.000000	0.100000	0.100000	0.050000
0	ALL	Long	0.000000	10.000000	5.000000	0.100000	0.100000	0.050000
; 
1	RG1
1	ALL	Short	0.000001	5.000000	10.000000	0.100000	0.100000	0.000000
1	ALL	Medium	0.000000	5.000000	5.000000	0.100000	0.100000	0.050000
1	ALL	Long	0.000000	10.000000	5.000000	0.100000	0.100000	0.050000
; 
10	RG10
10	ALL	Short	0.000001	5.000000	10.000000	0.100000	0.100000	0.000000
10	ALL	Medium	0.000000	5.000000	5.000000	0.100000	0.100000	0.050000
10	ALL	Long	0.000000	10.000000	5.000000	0.100000	0.100000	0.050000
; 
11	RG11
11	ALL	Short	0.000001	5.000000	10.000000	0.100000	0.100000	0.000000
11	ALL	Medium	0.000000	5.000000	5.000000	0.100000	0.100000	0.050000
11	ALL	Long	0.000000	10.000000	5.000000	0.100000	0.100000	0.050000
; 
12	RG12
12	ALL	Short	0.000001	5.000000	10.000000	0.100000	0.100000	0.000000
12	ALL	Medium	0.000000	5.000000	5.000000	0.100000	0.100000	0.050000
12	ALL	Long	0.000000	10.000000	5.000000	0.100000	0.100000	0.050000
; 
13	RG13
13	ALL	Short	0.000001	5.000000	10.000000	0.100000	0.100000	0.000000
13	ALL	Medium	0.000000	5.000000	5.000000	0.100000	0.100000	0.050000
13	ALL	Long	0.000000	10.000000	5.000000	0.100000	0.100000	0.050000
; 
14	RG14
14	ALL	Short	0.000001	5.000000	10.000000	0.100000	0.100000	0.000000
14	ALL	Medium	0.000000	5.000000	5.000000	0.100000	0.100000	0.050000
14	ALL	Long	0.000000	10.000000	5.000000	0.100000	0.100000	0.050000
; 
2	RG2
2	ALL	Short	0.000001	5.000000	10.000000	0.100000	0.100000	0.000000
2	ALL	Medium	0.000000	5.000000	5.000000	0.100000	0.100000	0.050000
2	ALL	Long	0.000000	10.000000	5.000000	0.100000	0.100000	0.050000
; 
3	RG3
3	ALL	Short	0.000001	5.000000	10.000000	0.100000	0.100000	0.000000
3	ALL	Medium	0.000000	2.500000	5.000000	0.100000	0.100000	0.050000
3	ALL	Long	0.000000	5.000000	5.000000	0.100000	0.100000	0.050000
; 
4	RG4
4	ALL	Short	0.000001	5.000000	10.000000	0.100000	0.100000	0.000000
4	ALL	Medium	0.000000	5.000000	5.000000	0.100000	0.100000	0.050000
4	ALL	Long	0.000000	10.000000	5.000000	0.100000	0.100000	0.050000
; 
5	RG6
5	ALL	Short	0.000001	5.000000	10.000000	0.100000	0.100000	0.000000
5	ALL	Medium	0.000000	5.000000	5.000000	0.100000	0.100000	0.050000
5	ALL	Long	0.000000	10.000000	5.000000	0.100000	0.100000	0.050000
; 
6	RG6
6	ALL	Short	0.000000	5.000000	10.000000	0.100000	0.100000	0.000000
6	ALL	Medium	0.000000	5.000000	5.000000	0.100000	0.100000	0.050000
6	ALL	Long	0.000000	10.000000	5.000000	0.100000	0.100000	0.050000
; 
7	RG7
7	ALL	Short	0.000001	5.000000	10.000000	0.100000	0.100000	0.000000
7	ALL	Medium	0.000000	5.000000	5.000000	0.100000	0.100000	0.050000
7	ALL	Long	0.000000	10.000000	5.000000	0.100000	0.100000	0.050000
; 
8	RG8
8	ALL	Short	0.000001	5.000000	10.000000	0.100000	0.100000	0.000000
8	ALL	Medium	0.000000	5.000000	5.000000	0.100000	0.100000	0.050000
8	ALL	Long	0.000000	10.000000	5.000000	0.100000	0.100000	0.050000
; 
9	RG9
9	ALL	Short	0.000001	5.000000	10.000000	0.100000	0.100000	0.000000
9	ALL	Medium	0.000000	5.000000	5.000000	0.100000	0.100000	0.050000
9	ALL	Long	0.000000	10.000000	5.000000	0.100000	0.100000	0.050000

[TEMPERATURE]

[ADJUSTMENTS]

[SUBCATCHMENTS]

[SUBAREAS]

[INFILTRATION]

[AQUIFERS]

[GROUNDWATER]

[GWF]

[SNOWPACKS]

[JUNCTIONS]
CHFM	461.300000	1.500000	0.000000	1000.000000	0.000000
EWFM	428.000000	0.833333	0.000000	1000.000000	0.000000
LFFM	444.270000	1.333333	0.000000	1000.000000	0.000000
PHFM	432.800000	0.500000	0.000000	1000.000000	0.000000
PRFM	396.700000	1.666667	0.000000	1000.000000	0.000000
PVFM	403.500000	0.500000	0.000000	1000.000000	0.000000
RCFM	448.750000	0.500000	0.000000	1000.000000	0.000000
SCSFM	493.720000	0.166667	0.000000	1000.000000	0.000000
SMFM	490.600000	0.400000	0.000000	1000.000000	0.000000
; CH-SSMH-18-72-957
SMH1039	477.990000	10.730000	0.000000	0.000000	100.000000
; CH-SSMH-18-72-947
SMH1040	475.890000	13.250000	0.000000	0.000000	100.000000
; SV-SSMH-11-13A
SMH1069	448.240000	6.330000	0.000000	0.000000	100.000000
; SD-SSMH-14-1021
SMH1182	467.190000	13.040000	0.000000	0.000000	100.000000
; EW-SSMH-207-29
SMH120	590.540000	14.300000	0.000000	0.000000	100.000000
; SD-SSMH-18-72-1025
SMH1205	480.160000	8.870000	0.000000	0.000000	100.000000
; EW-SSMH-207-30
SMH121	591.860000	10.230000	0.000000	0.000000	100.000000
; SD-SSMH-18-72-1023
SMH1210	472.600000	7.520000	0.000000	0.000000	100.000000
; SD-SSMH-18-72-1024
SMH1211	476.390000	7.750000	0.000000	0.000000	100.000000
; SD-SSMH-18-72-1022
SMH1212	469.380000	8.310000	0.000000	0.000000	100.000000
; SD-SSMH-18-72-1026
SMH1213	483.940000	17.940000	0.000000	0.000000	100.000000
; EW-SSMH-207-31
SMH122	594.170000	8.220000	0.000000	0.000000	100.000000
; EW-SSMH-207-32
SMH123	596.230000	9.780000	0.000000	0.000000	100.000000
; EW-SSMH-207-33
SMH124	600.830000	9.390000	0.000000	0.000000	100.000000
; EW-SSMH-207-34
SMH125	608.760000	8.980000	0.000000	0.000000	100.000000
; EW-SSMH-207-35
SMH126	616.950000	10.300000	0.000000	0.000000	100.000000
; EW-SSMH-207-36
SMH127	629.190000	9.900000	0.000000	0.000000	100.000000
; LF-SSMH-18-72-998
SMH1313	453.020000	12.010000	0.000000	0.000000	100.000000
; LF-SSMH-18-72-999
SMH1314	455.610000	10.170000	0.000000	0.000000	100.000000
; LF-SSMH-18-72-1000
SMH1315	464.590000	14.340000	0.000000	0.000000	100.000000
; LF-SSMH-18-72-1001
SMH1316	488.610000	12.470000	0.000000	0.000000	100.000000
; LF-SSMH-18-72-1003
SMH1317	513.360000	20.550000	0.000000	0.000000	100.000000
; LF-SSMH-18-72-1004
SMH1318	518.610000	14.170000	0.000000	0.000000	100.000000
; LF-SSMH-18-72-1005
SMH1319	535.080000	14.870000	0.000000	0.000000	100.000000
; LF-SSMH-18-72-1006
SMH1320	536.050000	14.790000	0.000000	0.000000	100.000000
; PR-SSMH-137-1
SMH1338	510.640000	14.470000	0.000000	0.000000	100.000000
; LF-SSMH-16-901
SMH1376	439.700000	11.780000	0.000000	0.000000	100.000000
; LF-SSMH-16-902
SMH1377	438.360000	9.920000	0.000000	0.000000	100.000000
; SD-SSMH-14-643
SMH1378	490.210000	6.150000	0.000000	0.000000	100.000000
; SD-SSMH-14-625
SMH1379	509.240000	9.710000	0.000000	0.000000	100.000000
; SD-SSMH-14-626
SMH1380	530.780000	9.770000	0.000000	0.000000	100.000000
; SD-SSMH-14-627
SMH1381	537.490000	10.950000	0.000000	0.000000	100.000000
; SD-SSMH-14-628
SMH1382	547.610000	13.230000	0.000000	0.000000	100.000000
; SD-SSMH-14-629
SMH1383	572.840000	7.960000	0.000000	0.000000	100.000000
; SD-SSMH-14-630
SMH1384	580.550000	11.090000	0.000000	0.000000	100.000000
; SD-SSMH-18-72-1010
SMH1385	437.680000	12.460000	0.000000	0.000000	100.000000
; SD-SSMH-18-72-1009
SMH1386	427.360000	33.510000	0.000000	0.000000	100.000000
; PR-SSMH-181-301
SMH139	603.860000	7.260000	0.000000	0.000000	100.000000
; SD-SSMH-178-M1
SMH1397	598.020000	6.100000	0.000000	0.000000	100.000000
; SD-SSMH-18-72-1031
SMH1405	501.970000	9.010000	0.000000	0.000000	100.000000
; SD-SSMH-18-72-1029
SMH1406	491.940000	1.890000	0.000000	0.000000	100.000000
; SD-SSMH-18-72-1050
SMH1411	425.520000	16.830000	0.000000	0.000000	100.000000
; SD-SSMH-18-72-1032
SMH1421	516.480000	10.100000	0.000000	0.000000	100.000000
; SD-SSMH-18-72-1027
SMH1422	485.970000	7.520000	0.000000	0.000000	100.000000
; PR-SSMH-15-785
SMH1437	571.050000	6.760000	0.000000	0.000000	100.000000
; PR-SSMH-13-71-782
SMH1441	547.990000	9.840000	0.000000	0.000000	100.000000
; PR-SSMH-15-803
SMH1442	605.520000	7.900000	0.000000	0.000000	100.000000
; PR-SSMH-15-769
SMH1444	596.690000	11.530000	0.000000	0.000000	100.000000
; PR-SSMH-15-768
SMH1445	593.020000	14.390000	0.000000	0.000000	100.000000
; LF-SSMH-18-72-1002
SMH1455	504.410000	14.000000	0.000000	0.000000	100.000000
; LF-SSMH-18-72-900
SMH1456	442.490000	9.000000	0.000000	0.000000	100.000000
; EW-SSMH-274-24
SMH1466	507.340000	13.850000	0.000000	0.000000	100.000000
; EW-SSMH-274-25
SMH1467	506.830000	9.890000	0.000000	0.000000	100.000000
; EW-SSMH-274-26
SMH1468	505.070000	9.560000	0.000000	0.000000	100.000000
; EW-SSMH-274-27
SMH1469	504.350000	10.540000	0.000000	0.000000	100.000000
; EW-SSMH-274-28
SMH1470	497.550000	9.950000	0.000000	0.000000	100.000000
; EW-SSMH-274-30
SMH1471	496.330000	13.660000	0.000000	0.000000	100.000000
; EW-SSMH-188-36
SMH1472	549.510000	8.030000	0.000000	0.000000	100.000000
; EW-SSMH-188-38
SMH1473	552.070000	7.490000	0.000000	0.000000	100.000000
; EW-SSMH-188-39
SMH1474	553.050000	10.000000	0.000000	0.000000	100.000000
; PR-SSMH-15-741
SMH1495	439.870000	7.640000	0.000000	0.000000	100.000000
; PR-SSMH-15-740
SMH1496	437.540000	6.900000	0.000000	0.000000	100.000000
; PR-SSMH-15-739
SMH1497	432.310000	8.400000	0.000000	0.000000	100.000000
; PR-SSMH-15-738
SMH1498	429.490000	8.870000	0.000000	0.000000	100.000000
; PR-SSMH-15-737
SMH1499	427.500000	9.370000	0.000000	0.000000	100.000000
; PR-SSMH-40-4002
SMH150	604.020000	9.300000	0.000000	0.000000	100.000000
; PR-SSMH-15-736
SMH1500	425.910000	8.360000	0.000000	0.000000	100.000000
; PR-SSMH-15-735
SMH1501	422.300000	11.990000	0.000000	0.000000	100.000000
; PR-SSMH-15-734
SMH1502	420.140000	8.450000	0.000000	0.000000	100.000000
; PR-SSMH-15-733
SMH1503	417.840000	8.060000	0.000000	0.000000	100.000000
; PR-SSMH-15-732
SMH1504	415.430000	8.480000	0.000000	0.000000	100.000000
; PR-SSMH-15-731
SMH1505	409.520000	14.620000	0.000000	0.000000	100.000000
; PR-SSMH-15-730
SMH1506	408.620000	10.060000	0.000000	0.000000	100.000000
; PR-SSMH-15-729
SMH1507	407.890000	11.170000	0.000000	0.000000	100.000000
; PR-SSMH-15-826
SMH1508	411.350000	10.300000	0.000000	0.000000	100.000000
; PR-PFV-15-PFV#1
SMH1509	411.450000	9.960000	0.000000	0.000000	100.000000
; PR-SSMH-40-4003
SMH151	614.910000	10.990000	0.000000	0.000000	100.000000
; PR-SSMH-15-827
SMH1510	412.200000	11.300000	0.000000	0.000000	100.000000
; PR-SSMH-15-829
SMH1511	416.920000	7.650000	0.000000	0.000000	100.000000
; PR-SSMH-15-805
SMH1512	438.940000	5.630000	0.000000	0.000000	100.000000
; PR-SSMH-15-806
SMH1513	443.180000	5.560000	0.000000	0.000000	100.000000
; PR-SSMH-15-807
SMH1514	448.520000	10.760000	0.000000	0.000000	100.000000
; PR-SSMH-15-808
SMH1515	451.260000	8.790000	0.000000	0.000000	100.000000
; PR-SSMH-15-809
SMH1516	464.600000	4.950000	0.000000	0.000000	100.000000
; PR-SSMH-15-810
SMH1517	467.100000	14.000000	0.000000	0.000000	100.000000
; PR-SSMH-15-811
SMH1518	471.430000	11.200000	0.000000	0.000000	100.000000
; PR-SSMH-15-812
SMH1519	477.560000	9.320000	0.000000	0.000000	100.000000
; PR-SSMH-15-757
SMH1520	537.310000	11.540000	0.000000	0.000000	100.000000
; PR-SSMH-15-756
SMH1521	526.510000	8.530000	0.000000	0.000000	100.000000
; PR-SSMH-15-755
SMH1522	519.630000	6.820000	0.000000	0.000000	100.000000
; PR-SSMH-15-912
SMH1535	486.800000	13.500000	0.000000	0.000000	100.000000
; PR-SSMH-15-911
SMH1536	481.130000	26.380000	0.000000	0.000000	100.000000
; PR-SSMH-15-908
SMH1537	449.370000	14.470000	0.000000	0.000000	100.000000
; PR-SSMH-114-15
SMH1538	441.480000	12.740000	0.000000	0.000000	100.000000
; PR-SSMH-15-830
SMH1544	418.460000	10.330000	0.000000	0.000000	100.000000
; PR-SSMH-15-831
SMH1545	419.730000	10.150000	0.000000	0.000000	100.000000
; PR-SSMH-15-832
SMH1546	420.190000	11.900000	0.000000	0.000000	100.000000
; PR-SSMH-15-833
SMH1547	420.740000	10.640000	0.000000	0.000000	100.000000
; PR-SSMH-15-834
SMH1548	422.280000	10.100000	0.000000	0.000000	100.000000
; PR-SSMH-15-835
SMH1549	423.620000	11.260000	0.000000	0.000000	100.000000
; PR-SSMH-15-835B
SMH1550	424.160000	11.280000	0.000000	0.000000	100.000000
; PR-SSMH-15-836
SMH1551	427.060000	12.060000	0.000000	0.000000	100.000000
; PR-SSMH-15-763
SMH1553	557.700000	12.010000	0.000000	0.000000	100.000000
; PR-SSMH-15-762
SMH1554	552.240000	11.270000	0.000000	0.000000	100.000000
; PR-SSMH-15-761
SMH1555	549.060000	10.170000	0.000000	0.000000	100.000000
; PR-SSMH-15-760
SMH1556	544.960000	9.060000	0.000000	0.000000	100.000000
; PR-SSMH-15-759
SMH1557	541.050000	10.070000	0.000000	0.000000	100.000000
; PR-SSMH-15-758
SMH1558	539.520000	10.520000	0.000000	0.000000	100.000000
; PR-SSMH-15-754
SMH1559	513.820000	5.160000	0.000000	0.000000	100.000000
; SV-SSMH-12-25
SMH1566	506.440000	9.540000	0.000000	0.000000	100.000000
; SV-SSMH-12-24
SMH1567	505.610000	8.710000	0.000000	0.000000	100.000000
; SV-SSMH-12-23
SMH1568	482.380000	6.680000	0.000000	0.000000	100.000000
; SV-SSMH-12-22
SMH1569	473.100000	8.080000	0.000000	0.000000	100.000000
; SV-SSMH-12-21
SMH1570	446.760000	7.670000	0.000000	0.000000	100.000000
; SV-SSMH-12-20
SMH1571	443.540000	8.660000	0.000000	0.000000	100.000000
; SV-SSMH-12-18
SMH1572	411.360000	9.230000	0.000000	0.000000	100.000000
; SV-SSMH-12-17
SMH1573	394.290000	14.940000	0.000000	0.000000	100.000000
; SV-SSMH-15-703
SMH1574	423.800000	12.650000	0.000000	0.000000	100.000000
; SV-SSMH-15-704
SMH1575	455.640000	9.340000	0.000000	0.000000	100.000000
; SV-SSMH-15-705
SMH1576	467.300000	9.100000	0.000000	0.000000	100.000000
; SV-SSMH-15-706
SMH1577	479.700000	13.050000	0.000000	0.000000	100.000000
; SV-SSMH-15-707
SMH1578	495.270000	20.460000	0.000000	0.000000	100.000000
; SV-SSMH-15-708
SMH1579	512.390000	21.410000	0.000000	0.000000	100.000000
; SV-SSMH-15-709
SMH1580	515.850000	9.810000	0.000000	0.000000	100.000000
; SV-SSMH-15-710
SMH1581	523.260000	7.410000	0.000000	0.000000	100.000000
; PR-SSMH-73-A
SMH1608	396.010000	13.750000	0.000000	0.000000	100.000000
; PR-SSMH-15-716
SMH1609	395.910000	11.080000	0.000000	0.000000	100.000000
; SV-SSMH-15-702
SMH1616	400.710000	9.910000	0.000000	0.000000	100.000000
; SV-SSMH-12-4A
SMH1619	364.720000	18.210000	0.000000	0.000000	100.000000
; PR-SSMH-204-4006
SMH162	627.240000	10.080000	0.000000	0.000000	100.000000
; SV-SSMH-12-95A
SMH1620	364.810000	13.420000	0.000000	0.000000	100.000000
; SV-SSMH-12-3
SMH1621	363.640000	15.350000	0.000000	0.000000	100.000000
; SV-SSMH-12-2
SMH1622	363.200000	13.950000	0.000000	0.000000	100.000000
; SV-SSMH-12-101
SMH1623	384.290000	8.960000	0.000000	0.000000	100.000000
; PR-SSMH-204-4005
SMH163	621.700000	6.890000	0.000000	0.000000	100.000000
; PR-SSMH-40-4007
SMH164	631.920000	17.960000	0.000000	0.000000	100.000000
; PR-SSMH-40-4008
SMH165	633.240000	21.450000	0.000000	0.000000	100.000000
; CH-SSMH-192-865
SMH1655	453.250000	8.700000	0.000000	0.000000	100.000000
; PR-SSMH-15-742
SMH1656	444.310000	7.080000	0.000000	0.000000	100.000000
; PR-SSMH-15-743
SMH1657	448.540000	6.860000	0.000000	0.000000	100.000000
; PR-SSMH-15-744
SMH1658	450.800000	7.740000	0.000000	0.000000	100.000000
; PR-SSMH-15-745
SMH1659	455.560000	8.070000	0.000000	0.000000	100.000000
; PR-SSMH-195-17
SMH1660	459.580000	7.510000	0.000000	0.000000	100.000000
; PR-SSMH-15-747
SMH1662	465.020000	5.250000	0.000000	0.000000	100.000000
; PR-SSMH-15-748
SMH1663	469.810000	13.130000	0.000000	0.000000	100.000000
; PR-SSMH-15-749
SMH1664	473.110000	9.690000	0.000000	0.000000	100.000000
; PR-SSMH-15-776
SMH1665	476.490000	11.820000	0.000000	0.000000	100.000000
; PR-SSMH-15-777
SMH1666	488.980000	6.080000	0.000000	0.000000	100.000000
; PR-SSMH-15-778
SMH1667	503.140000	16.910000	0.000000	0.000000	100.000000
; PR-SSMH-15-779
SMH1668	521.300000	6.300000	0.000000	0.000000	100.000000
; PR-SSMH-15-780
SMH1669	523.610000	8.220000	0.000000	0.000000	100.000000
; PR-SSMH-15-781
SMH1670	535.250000	7.080000	0.000000	0.000000	100.000000
; PR-SSMH-15-750
SMH1671	483.710000	6.230000	0.000000	0.000000	100.000000
; PR-SSMH-15-751
SMH1672	488.200000	7.300000	0.000000	0.000000	100.000000
; PR-SSMH-15-752
SMH1673	497.900000	6.610000	0.000000	0.000000	100.000000
; PR-SSMH-15-753
SMH1674	508.910000	6.470000	0.000000	0.000000	100.000000
; PR-SSMH-15-727
SMH1695	406.550000	10.670000	0.000000	0.000000	100.000000
; PR-SSMH-15-726
SMH1696	405.910000	10.020000	0.000000	0.000000	100.000000
; PR-SSMH-15-725
SMH1697	405.010000	10.160000	0.000000	0.000000	100.000000
; PR-SSMH-15-723
SMH1698	403.670000	9.440000	0.000000	0.000000	100.000000
; PR-SSMH-15-721
SMH1699	402.180000	10.280000	0.000000	0.000000	100.000000
; PR-SSMH-15-719
SMH1700	400.880000	7.940000	0.000000	0.000000	100.000000
; PR-SSMH-15-718
SMH1701	400.050000	10.360000	0.000000	0.000000	100.000000
; PR-SSMH-15-717
SMH1702	399.480000	7.490000	0.000000	0.000000	100.000000
; PR-SSMH-58-77-1
SMH1703	399.470000	7.230000	0.000000	0.000000	100.000000
; SV-SSMH-MES1-16
SMH1704	386.340000	13.940000	0.000000	0.000000	100.000000
; SV-SSMH-MES1-15
SMH1705	380.810000	12.500000	0.000000	0.000000	100.000000
; SV-SSMH-MES1-14
SMH1706	370.930000	11.590000	0.000000	0.000000	100.000000
; SV-SSMH-MES1-13
SMH1707	365.360000	12.670000	0.000000	0.000000	100.000000
; SV-SSMH-MES1-11
SMH1708	359.180000	3.790000	0.000000	0.000000	100.000000
; SV-SSMH-MES1-10
SMH1709	350.240000	5.780000	0.000000	0.000000	100.000000
; SV-SSMH-MES1-9
SMH1710	348.470000	5.550000	0.000000	0.000000	100.000000
; PR-SSMH-15-764
SMH1711	565.700000	7.810000	0.000000	0.000000	100.000000
; PR-SSMH-15-765
SMH1712	572.690000	7.390000	0.000000	0.000000	100.000000
; PR-SSMH-116-1
SMH1716	562.540000	8.540000	0.000000	0.000000	100.000000
; EW-SSMH-207-18
SMH1717	576.220000	13.200000	0.000000	0.000000	100.000000
; EW-SSMH-207-17
SMH1718	574.440000	10.800000	0.000000	0.000000	100.000000
; EW-SSMH-207-16
SMH1719	567.030000	6.190000	0.000000	0.000000	100.000000
; EW-SSMH-207-15
SMH1720	562.910000	8.580000	0.000000	0.000000	100.000000
; EW-SSMH-207-42
SMH1722	645.730000	3.630000	0.000000	0.000000	100.000000
; EW-SSMH-207-A-20
SMH1723	652.400000	5.330000	0.000000	0.000000	100.000000
; EW-SSMH-207-A-22
SMH1724	643.120000	18.370000	0.000000	0.000000	100.000000
; EW-SSMH-40-4010
SMH1725	637.280000	23.940000	0.000000	0.000000	100.000000
; PR-SSMH-15-772
SMH1737	608.640000	7.560000	0.000000	0.000000	100.000000
; PR-SSMH-15-774
SMH1738	624.730000	5.740000	0.000000	0.000000	100.000000
; PR-SSMH-15-905
SMH1760	429.280000	7.850000	0.000000	0.000000	100.000000
; PR-SSMH-18-72-916
SMH1786	428.920000	13.360000	0.000000	0.000000	100.000000
; PR-SSMH-18-72-917
SMH1787	429.530000	12.990000	0.000000	0.000000	100.000000
; CH-SSMH-18-72-942
SMH1794	485.210000	16.080000	0.000000	0.000000	100.000000
; CH-SSMH-18-72-549
SMH1796	484.790000	6.740000	0.000000	0.000000	100.000000
; LF-SSMH-18-72-956
SMH1799	554.170000	14.670000	0.000000	0.000000	100.000000
; LF-SSMH-18-72-955
SMH1800	545.420000	20.810000	0.000000	0.000000	100.000000
; PR-SSMH-116-5
SMH1827	585.610000	13.740000	0.000000	0.000000	100.000000
; SD-SSMH-14-631
SMH1844	586.500000	12.680000	0.000000	0.000000	100.000000
; EW-SSMH-40-4009
SMH1847	635.700000	24.360000	0.000000	0.000000	100.000000
; PR-SSMH-204-500
SMH185	620.180000	8.000000	0.000000	0.000000	100.000000
; SV-SSMH-12-105
SMH1863	508.250000	9.330000	0.000000	0.000000	100.000000
; SV-SSMH-12-106
SMH1864	508.420000	10.710000	0.000000	0.000000	100.000000
; SV-SSMH-12-107
SMH1865	509.290000	10.300000	0.000000	0.000000	100.000000
; SV-SSMH-12-108
SMH1866	513.370000	5.700000	0.000000	0.000000	100.000000
; PR-SSMH-15-770
SMH1873	597.440000	12.710000	0.000000	0.000000	100.000000
; SV-SSMH-11-69-103
SMH1894	406.860000	16.900000	0.000000	0.000000	100.000000
; SV-SSMH-12-142
SMH1895	416.080000	14.590000	0.000000	0.000000	100.000000
; SV-SSMH-23-142B
SMH1896	431.260000	7.810000	0.000000	0.000000	100.000000
; SV-SSMH-23-142C
SMH1897	446.170000	13.520000	0.000000	0.000000	100.000000
; PR-SSMH-116-4
SMH1906	579.910000	10.290000	0.000000	0.000000	100.000000
; PR-SSMH-116-3
SMH1907	572.990000	8.360000	0.000000	0.000000	100.000000
; PR-SSMH-116-11
SMH1908	589.510000	10.770000	0.000000	0.000000	100.000000
; PR-SSMH-116-12
SMH1909	601.160000	9.390000	0.000000	0.000000	100.000000
; PR-SSMH-38-1
SMH1937	459.320000	8.380000	0.000000	0.000000	100.000000
; PR-SSMH-15-787
SMH1939	594.040000	5.810000	0.000000	0.000000	100.000000
; SV-SSMH-23-142A
SMH1957	423.190000	14.090000	0.000000	0.000000	100.000000
; SV-SSMH-15-711
SMH1967	541.490000	7.600000	0.000000	0.000000	100.000000
; SV-SSMH-15-712
SMH1968	542.800000	10.460000	0.000000	0.000000	100.000000
; SV-SSMH-15-713
SMH1969	545.590000	16.110000	0.000000	0.000000	100.000000
; SV-SSMH-15-714
SMH1970	549.970000	9.660000	0.000000	0.000000	100.000000
; SV-SSMH-71-1
SMH1984	519.420000	10.630000	0.000000	0.000000	100.000000
; SV-SSMH-11-69-18
SMH1985	524.960000	8.210000	0.000000	0.000000	100.000000
; SV-SSMH-11-69-19
SMH1987	530.690000	7.580000	0.000000	0.000000	100.000000
; SV-SSMH-11-69-20
SMH1988	538.240000	5.810000	0.000000	0.000000	100.000000
; SV-SSMH-11-69-21
SMH1998	541.010000	6.580000	0.000000	0.000000	100.000000
; SV-SSMH-11-69-21A
SMH1999	545.680373	5.439627	0.000000	0.000000	100.000000
; SV-SSMH-11-69-22
SMH2000	547.389065	2.360935	0.000000	0.000000	100.000000
; SV-SSMH-11-69-25
SMH2008	562.540000	10.370000	0.000000	0.000000	100.000000
; SV-SSMH-12-61
SMH2010	465.630000	9.220000	0.000000	0.000000	100.000000
; PR-SSMH-15-913
SMH2033	498.780000	12.700000	0.000000	0.000000	100.000000
; PR-SSMH-15-914
SMH2034	526.680000	6.750000	0.000000	0.000000	100.000000
; PR-SSMH-15-915
SMH2035	544.360000	9.350000	0.000000	0.000000	100.000000
; SD-SSMH-18-1033
SMH2048	519.200000	9.560000	0.000000	0.000000	100.000000
; EW-SSMH-284-87
SMH2050	548.730000	15.280000	0.000000	0.000000	100.000000
; PR-SSMH-NC-12D
SMH2053	450.500000	7.010000	0.000000	0.000000	100.000000
; PR-SSMH-NC-12C
SMH2054	447.200000	5.900000	0.000000	0.000000	100.000000
; PR-SSMH-NC-12B
SMH2055	446.370000	7.340000	0.000000	0.000000	100.000000
; PR-SSMH-NC-12A
SMH2056	438.250000	8.040000	0.000000	0.000000	100.000000
; PR-SSMH-NC-12
SMH2057	436.530000	6.160000	0.000000	0.000000	100.000000
; PR-SSMH-322-15
SMH2059	576.450000	7.760000	0.000000	0.000000	100.000000
; SD-SSMH-14-624
SMH2066	497.830000	10.020000	0.000000	0.000000	100.000000
; SD-SSMH-P1
SMH2076	488.000000	8.760000	0.000000	0.000000	100.000000
; PR-SSMH-38-7
SMH2113	505.740000	13.010000	0.000000	0.000000	100.000000
; PR-SSMH-62-2-A-1
SMH2115	519.910000	4.620000	0.000000	0.000000	100.000000
; SD-SSMH-14-1008
SMH2120	426.160000	27.830000	0.000000	0.000000	100.000000
; SD-SSMH-18-72-1008A
SMH2121	425.430000	16.570000	0.000000	0.000000	100.000000
; SD-SSMH-18-72-1051
SMH2122	425.860000	24.140000	0.000000	0.000000	100.000000
; LF-SSMH-18-72-552
SMH2167	536.700000	18.760000	0.000000	0.000000	100.000000
; LF-SSMH-18-72-551
SMH2168	522.690000	16.980000	0.000000	0.000000	100.000000
; LF-SSMH-18-72-550
SMH2169	512.110000	5.660000	0.000000	0.000000	100.000000
; PR-SSMH-40-4004
SMH219	618.290000	9.100000	0.000000	0.000000	100.000000
; PR-SSMH-15-771
SMH2214	604.720000	8.580000	0.000000	0.000000	100.000000
; PR-SSMH-40-4001
SMH2215	601.920000	7.580000	0.000000	0.000000	100.000000
; EW-SSMH-207-40
SMH2280	636.470000	5.160000	0.000000	0.000000	100.000000
; EW-SSMH-207-41
SMH2281	638.660000	5.600000	0.000000	0.000000	100.000000
; EW-SSMH-207-19
SMH2282	577.950000	6.290000	0.000000	0.000000	100.000000
; PR-SSMH-15-802
SMH2285	604.120000	8.190000	0.000000	0.000000	100.000000
; PR-SSMH-15-790
SMH2286	600.930000	9.710000	0.000000	0.000000	100.000000
; PR-SSMH-15-789
SMH2287	598.910000	10.910000	0.000000	0.000000	100.000000
; SV-SSMH-11-69-17
SMH2306	516.240000	9.510000	0.000000	0.000000	100.000000
; SV-SSMH-11-26.C.O.
SMH2361	569.410000	9.110000	0.000000	0.000000	100.000000
; SV-SSMH-11-24
SMH2362	557.990000	6.660000	0.000000	0.000000	100.000000
; SV-SSMH-12-207
SMH2448	395.580000	14.090000	0.000000	0.000000	100.000000
; SD-SSMH-18-72-1019
SMH2520	462.750000	11.210000	0.000000	0.000000	100.000000
; SD-SSMH-18-72-1020
SMH2521	464.350000	12.560000	0.000000	0.000000	100.000000
; SD-SSMH-18-72-1018
SMH2522	460.130000	12.020000	0.000000	0.000000	100.000000
; GPV-SSMH-259-1
SMH2555	392.060000	21.990000	0.000000	0.000000	100.000000
; PR-SSMH-116-2
SMH2880	565.040000	9.140000	0.000000	0.000000	100.000000
; RC-SSMH-356-1
SMH2899	438.110000	13.430000	0.000000	0.000000	100.000000
; SV-SSMH-17-4
SMH290	510.150000	7.350000	0.000000	0.000000	100.000000
; SV-SSMH-17-5
SMH291	525.490000	10.200000	0.000000	0.000000	100.000000
; SV-SSMH-70-78-13
SMH292	531.600000	19.170000	0.000000	0.000000	100.000000
; SV-SSMH-70-78-8
SMH293	547.610000	10.470000	0.000000	0.000000	100.000000
; CH-SSMH-267-12
SMH2970	486.280000	5.730000	0.000000	0.000000	100.000000
; CH-SSMH-18-72-961
SMH2972	480.270000	9.480000	0.000000	0.000000	100.000000
; CH-SSMH-18-72-946
SMH2973	472.190000	9.120000	0.000000	0.000000	100.000000
; CH-SSMH-18-72-945
SMH2974	469.280000	8.890000	0.000000	0.000000	100.000000
; CH-SSMH-18-72-944
SMH2975	465.170000	10.420000	0.000000	0.000000	100.000000
; CH-SSMH-18-72-943
SMH2976	458.770000	15.550000	0.000000	0.000000	100.000000
; SV-SSMH-12-64
SMH3160	471.708633	8.416667	0.000000	0.000000	100.000000
; SV-SSMH-12-67
SMH3161	487.243400	10.750000	0.000000	0.000000	100.000000
; SV-SSMH-12-68
SMH3162	489.652933	9.416667	0.000000	0.000000	100.000000
; SV-SSMH-11-23
SMH3164	548.653233	6.416667	0.000000	0.000000	100.000000
; SV-SSMH-12-1
SMH3166	362.330000	15.056300	0.000000	0.000000	100.000000
; SV-SSMH-12-4
SMH3167	364.340000	14.720700	0.000000	0.000000	100.000000
; PR-SSMH-101-1
SMH3168	580.927800	9.500000	0.000000	0.000000	100.000000
; SV-SSMH-12-102
SMH3185	395.549533	7.416667	0.000000	0.000000	100.000000
; SV-SSMH-12-103
SMH3186	507.800000	19.591700	0.000000	0.000000	100.000000
; SV-SSMH-12-104
SMH3187	508.000000	8.677200	0.000000	0.000000	100.000000
; SV-SSMH-12-201
SMH3188	366.488667	4.583333	0.000000	0.000000	100.000000
; SV-SSMH-12-202
SMH3189	366.844467	5.333333	0.000000	0.000000	100.000000
; SV-SSMH-12-203
SMH3190	368.957600	12.750000	0.000000	0.000000	100.000000
; SV-SSMH-12-204
SMH3191	370.153500	9.750000	0.000000	0.000000	100.000000
; SV-SSMH-12-205
SMH3192	374.796567	14.583333	0.000000	0.000000	100.000000
; SV-SSMH-12-206
SMH3193	386.778133	14.166667	0.000000	0.000000	100.000000
; SV-SSMH-12-206A
SMH3194	389.751700	11.000000	0.000000	0.000000	100.000000
; SV-SSMH-12-208
SMH3195	406.827733	6.416667	0.000000	0.000000	100.000000
; SV-SSMH-12-209
SMH3196	409.327933	7.916667	0.000000	0.000000	100.000000
; SV-SSMH-12-210
SMH3197	414.084633	8.916667	0.000000	0.000000	100.000000
; SV-SSMH-12-211
SMH3198	427.389700	10.750000	0.000000	0.000000	100.000000
; SV-SSMH-12-212
SMH3199	433.252400	8.250000	0.000000	0.000000	100.000000
; SV-SSMH-12-213
SMH3200	458.161733	11.916667	0.000000	0.000000	100.000000
; SV-SSMH-12-214
SMH3201	459.310800	17.000000	0.000000	0.000000	100.000000
; SV-SSMH-12-215
SMH3202	460.994800	12.000000	0.000000	0.000000	100.000000
; SD-SSMH-14-642
SMH3217	470.994300	5.000000	0.000000	0.000000	100.000000
; PR-SSMH-15-715
SMH3224	395.090000	15.239300	0.000000	0.000000	100.000000
; PR-SSMH-15-746
SMH3226	462.345467	9.583333	0.000000	0.000000	100.000000
; PR-SSMH-15-766
SMH3227	578.471433	9.166667	0.000000	0.000000	100.000000
; PR-SSMH-15-767
SMH3228	584.906000	8.166900	0.000000	0.000000	100.000000
; PR-SSMH-15-901
SMH3233	408.920267	9.083333	0.000000	0.000000	100.000000
; PR-SSMH-15-902
SMH3234	410.802800	9.000000	0.000000	0.000000	100.000000
; PR-SSMH-15-903
SMH3235	412.663833	9.666667	0.000000	0.000000	100.000000
; PR-SSMH-15-904
SMH3236	417.195933	10.666667	0.000000	0.000000	100.000000
; PR-SSMH-15-906
SMH3237	439.428767	10.583333	0.000000	0.000000	100.000000
; PR-SSMH-15-907
SMH3238	444.017967	9.833333	0.000000	0.000000	100.000000
; PR-SSMH-15-909
SMH3239	461.079600	10.000000	0.000000	0.000000	100.000000
; PR-SSMH-15-910
SMH3241	476.717867	11.083333	0.000000	0.000000	100.000000
; CH-SSMH-16-864
SMH3251	451.920000	10.117700	0.000000	0.000000	100.000000
; CH-SSMH-16-894
SMH3252	457.669500	15.250000	0.000000	0.000000	100.000000
; SV-SSMH-17-2
SMH3253	497.486233	6.916667	0.000000	0.000000	100.000000
; SV-SSMH-17-3