[TITLE]
Scenario Run :  ORIGINAL_SYS

[OPTIONS]
;Option and Files Scenario Set: ORIGINAL
FLOW_UNITS	GPM
INFILTRATION	HORTON
FLOW_ROUTING	DYNWAVE
ALLOW_PONDING	NO
DRY_DAYS	5.000000
SKIP_STEADY_STATE 	NO
IGNORE_RAINFALL	NO
IGNORE_SNOWMELT	NO
IGNORE_GROUNDWATER	NO
IGNORE_QUALITY	NO
FORCE_MAIN_EQUATION	H-W
LINK_OFFSETS	DEPTH
MIN_SLOPE	0.000000
START_DATE	01/01/2002
START_TIME	00:00
END_DATE	01/08/2002
END_TIME	00:00
REPORT_START_DATE	01/01/2002
REPORT_START_TIME	00:00
SWEEP_START	01/01
SWEEP_END	12/31
WET_STEP	01:00:00
DRY_STEP	23:00:00
ROUTING_STEP	10
REPORT_STEP	00:15:00
INERTIAL_DAMPING	NONE
VARIABLE_STEP	0.750000
MINIMUM_STEP	0.000000
LENGTHENING_STEP	10
MIN_SURFAREA	0.000000
NORMAL_FLOW_LIMITED	BOTH
MAX_TRIALS	8
HEAD_TOLERANCE	0.001000

[FILES]

[RAINGAGES]
;  NWS Sarasota Bradenton
RAINGAGE-3	VOLUME	1.000000	1.000000	TIMESERIES	TIMESERI-1		

[HYDROGRAPHS]

[TEMPERATURE]

[ADJUSTMENTS]

[SUBCATCHMENTS]

[SUBAREAS]

[INFILTRATION]

[AQUIFERS]

[GROUNDWATER]

[GWF]

[SNOWPACKS]

[JUNCTIONS]
;   pressure
J-1002-OUT	7.500000	0.500000	0.000000	1000.000000	1000.000000
;   pressure
J-1003-OUT	11.600000	0.500000	0.000000	1000.000000	1000.000000
;   pressure
J-147-OUT	9.600000	0.500000	0.000000	1000.000000	1000.000000
;   pressure
J-220-OUT	6.000000	0.500000	0.000000	1000.000000	1000.000000
;   pressure
J-221-OUT	8.000000	0.500000	0.000000	1000.000000	1000.000000
;   pressure
J-222-OUT	5.000000	0.500000	0.000000	1000.000000	1000.000000
;   pressure
J-223-OUT	10.000000	0.500000	0.000000	1000.000000	1000.000000
;   pressure
J-224-OUT	11.000000	0.500000	0.000000	1000.000000	1000.000000
;   pressure
J-225-OUT	5.200000	0.500000	0.000000	1000.000000	1000.000000
;   pressure
J-226-OUT	5.000000	0.500000	0.000000	1000.000000	1000.000000
;   pressure
J-227-OUT	8.300000	0.500000	0.000000	1000.000000	1000.000000
;   pressure
J-228-OUT	19.600000	0.500000	0.000000	1000.000000	1000.000000
;   pressure
J-229-OUT	5.000000	0.500000	0.000000	1000.000000	1000.000000
;   pressure
J-230-OUT	4.500000	0.500000	0.000000	1000.000000	1000.000000
;   pressure
J-231-OUT	4.500000	0.500000	0.000000	1000.000000	1000.000000
;   pressure
J-232-OUT	7.000000	0.500000	0.000000	1000.000000	1000.000000
;   pressure
J-242-OUT	12.300000	0.500000	0.000000	1000.000000	1000.000000
;   pressure
J-243-OUT	17.700000	0.500000	0.000000	1000.000000	1000.000000
;   pressure
J-246-OUT	17.900000	0.500000	0.000000	1000.000000	1000.000000
;   pressure
J-247-OUT	7.000000	0.500000	0.000000	1000.000000	1000.000000
;   pressure
J-250-OUT	11.500000	0.500000	0.000000	1000.000000	1000.000000
;   pressure
J-251-OUT	8.500000	0.500000	0.000000	1000.000000	1000.000000
;   pressure
J-258-OUT	8.400000	0.500000	0.000000	1000.000000	1000.000000
;   pressure
JN_824_1	9.000000	0.500000	0.000000	1000.000000	1000.000000
;   pressure
JN_824_10	13.900000	0.500000	0.000000	1000.000000	1000.000000
;   pressure
JN_824_2	8.500000	0.500000	0.000000	1000.000000	1000.000000
;   pressure
JN_824_20	9.200000	0.500000	0.000000	1000.000000	1000.000000
;   pressure
JN_824_21	13.800000	0.500000	0.000000	1000.000000	1000.000000
;   pressure
JN_824_22	15.000000	0.500000	0.000000	1000.000000	1000.000000
;   pressure
JN_824_25	15.000000	0.500000	0.000000	1000.000000	1000.000000
;   pressure
JN_824_26	15.500000	0.500000	0.000000	1000.000000	1000.000000
;   pressure
JN_824_8	9.500000	0.500000	0.000000	1000.000000	1000.000000
;   pressure
JN_825_10	5.000000	0.500000	0.000000	1000.000000	1000.000000
;   pressure
JN_825_6	10.700000	0.500000	0.000000	1000.000000	1000.000000
;   pressure
JN_825_7	10.000000	0.500000	0.000000	1000.000000	1000.000000
;   pressure
JN_919_22	11.000000	0.500000	0.000000	1000.000000	1000.000000
;   pressure
JN_919_26	10.600000	0.500000	0.000000	1000.000000	1000.000000
;   pressure
JN_919_3	5.000000	0.500000	0.000000	1000.000000	1000.000000
;   pressure
JN_919_9	8.000000	0.500000	0.000000	1000.000000	1000.000000
;   pressure
JN_920_1	6.000000	0.500000	0.000000	1000.000000	1000.000000
;   pressure
JN_920_12	9.300000	0.500000	0.000000	1000.000000	1000.000000
;   pressure
JN_920_23	5.000000	0.500000	0.000000	1000.000000	1000.000000
;   pressure
JN_929_19	15.000000	0.500000	0.000000	1000.000000	1000.000000
;   pressure
JN_929_40	18.500000	0.500000	0.000000	1000.000000	1000.000000
;   pressure
JN_929_43	8.600000	0.500000	0.000000	1000.000000	1000.000000
;   pressure
JN_929_5	15.000000	0.500000	0.000000	1000.000000	1000.000000
;   pressure
JN_930_16	5.300000	0.500000	0.000000	1000.000000	1000.000000
;   pressure
JN_930_19	10.000000	0.500000	0.000000	1000.000000	1000.000000
;   pressure
JN_930_24	6.600000	0.500000	0.000000	1000.000000	1000.000000
;   pressure
JN_930_28	8.900000	0.500000	0.000000	1000.000000	1000.000000
;   pressure
JN_930_38	10.200000	0.500000	0.000000	1000.000000	1000.000000
;   pressure
JX-6929	5.000000	0.500000	0.000000	1000.000000	1000.000000
;   manhole
MH_813_1	-1.500000	9.500000	0.000000	0.000000	0.000000
;   manhole
MH_813_2	-2.000000	9.400000	0.000000	0.000000	0.000000
;   manhole
MH_813_3	-2.500000	10.200000	0.000000	0.000000	0.000000
;   manhole
MH_824_1	1.900000	4.400000	0.000000	0.000000	0.000000
;   manhole
MH_824_10	-3.900000	11.600000	0.000000	0.000000	0.000000
;   manhole
MH_824_100	13.200000	6.700000	0.000000	0.000000	0.000000
;   manhole
MH_824_101	11.200000	8.400000	0.000000	0.000000	0.000000
;   manhole
MH_824_102	9.200000	10.900000	0.000000	0.000000	0.000000
;   manhole
MH_824_103	17.200000	3.600000	0.000000	0.000000	0.000000
;   manhole
MH_824_104	8.600000	10.300000	0.000000	0.000000	0.000000
;   manhole
MH_824_105	6.800000	10.300000	0.000000	0.000000	0.000000
;   manhole
MH_824_106	5.500000	10.200000	0.000000	0.000000	0.000000
;   manhole
MH_824_107	5.300000	6.900000	0.000000	0.000000	0.000000
;   manhole
MH_824_108	3.400000	10.000000	0.000000	0.000000	0.000000
;   manhole
MH_824_109	14.100000	4.600000	0.000000	0.000000	0.000000
;   manhole
MH_824_11	2.600000	3.500000	0.000000	0.000000	0.000000
;   manhole
MH_824_110	9.100000	9.100000	0.000000	0.000000	0.000000
;   manhole
MH_824_111	14.400000	5.700000	0.000000	0.000000	0.000000
;   manhole
MH_824_112	10.600000	6.500000	0.000000	0.000000	0.000000
;   manhole
MH_824_113	14.400000	6.100000	0.000000	0.000000	0.000000
;   manhole
MH_824_114	12.600000	4.000000	0.000000	0.000000	0.000000
;   manhole
MH_824_115	13.100000	3.700000	0.000000	0.000000	0.000000
;   manhole
MH_824_116	10.800000	7.300000	0.000000	0.000000	0.000000
;   manhole
MH_824_117	14.800000	5.900000	0.000000	0.000000	0.000000
;   manhole
MH_824_118	16.300000	3.500000	0.000000	0.000000	0.000000
;   manhole
MH_824_119	4.100000	9.600000	0.000000	0.000000	0.000000
;   manhole
MH_824_12	1.800000	4.400000	0.000000	0.000000	0.000000
;   manhole
MH_824_120	11.100000	4.600000	0.000000	0.000000	0.000000
;   manhole
MH_824_121	2.800000	9.900000	0.000000	0.000000	0.000000
;   manhole
MH_824_122	-0.300000	9.900000	0.000000	0.000000	0.000000
;   manhole
MH_824_123	-0.900000	9.600000	0.000000	0.000000	0.000000
;   manhole
MH_824_124	8.700000	6.100000	0.000000	0.000000	0.000000
;   manhole
MH_824_125	1.200000	9.500000	0.000000	0.000000	0.000000
;   manhole
MH_824_126	2.000000	9.800000	0.000000	0.000000	0.000000
;   manhole
MH_824_127	10.900000	6.200000	0.000000	0.000000	0.000000
;   manhole
MH_824_128	9.300000	7.300000	0.000000	0.000000	0.000000
;   manhole
MH_824_129	11.200000	5.700000	0.000000	0.000000	0.000000
;   manhole
MH_824_13	-5.900000	13.400000	0.000000	0.000000	0.000000
;   manhole
MH_824_130	9.700000	5.000000	0.000000	0.000000	0.000000
;   manhole
MH_824_131	12.400000	5.100000	0.000000	0.000000	0.000000
;   manhole
MH_824_132	10.700000	6.100000	0.000000	0.000000	0.000000
;   manhole
MH_824_133	9.000000	7.500000	0.000000	0.000000	0.000000
;   manhole
MH_824_134	15.200000	4.200000	0.000000	0.000000	0.000000
;   manhole
MH_824_135	14.800000	4.600000	0.000000	0.000000	0.000000
;   manhole
MH_824_136	12.900000	5.500000	0.000000	0.000000	0.000000
;   manhole
MH_824_137	14.600000	5.400000	0.000000	0.000000	0.000000
;   manhole
MH_824_138	8.200000	6.700000	0.000000	0.000000	0.000000
;   manhole
MH_824_139	12.000000	7.000000	0.000000	0.000000	0.000000
;   manhole
MH_824_14	1.000000	5.700000	0.000000	0.000000	0.000000
;   manhole
MH_824_140	6.000000	10.700000	0.000000	0.000000	0.000000
;   manhole
MH_824_141	7.900000	14.600000	0.000000	0.000000	0.000000
;   manhole
MH_824_142	6.800000	9.300000	0.000000	0.000000	0.000000
;   manhole
MH_824_143	13.200000	4.200000	0.000000	0.000000	0.000000
;   manhole
MH_824_144	11.400000	7.200000	0.000000	0.000000	0.000000
;   manhole
MH_824_145	7.200000	7.200000	0.000000	0.000000	0.000000
;   manhole
MH_824_146	13.600000	6.500000	0.000000	0.000000	0.000000
;   manhole
MH_824_147	1.600000	10.200000	0.000000	0.000000	0.000000
;   manhole
MH_824_148	-1.300000	9.600000	0.000000	0.000000	0.000000
;   manhole
MH_824_149	0.500000	9.400000	0.000000	0.000000	0.000000
;   manhole
MH_824_15	-2.100000	9.000000	0.000000	0.000000	0.000000
;   manhole
MH_824_150	14.200000	3.700000	0.000000	0.000000	0.000000
;   manhole
MH_824_151	4.200000	8.900000	0.000000	0.000000	0.000000
;   manhole
MH_824_152	-0.500000	9.200000	0.000000	0.000000	0.000000
;   manhole
MH_824_153	5.000000	10.800000	0.000000	0.000000	0.000000
;   manhole
MH_824_154	10.500000	5.200000	0.000000	0.000000	0.000000
;   manhole
MH_824_155	11.200000	7.400000	0.000000	0.000000	0.000000
;   manhole
MH_824_156	13.100000	6.800000	0.000000	0.000000	0.000000
;   manhole
MH_824_157	11.800000	7.400000	0.000000	0.000000	0.000000
;   manhole
MH_824_158	10.200000	8.700000	0.000000	0.000000	0.000000
;   manhole
MH_824_159	12.400000	4.000000	0.000000	0.000000	0.000000
;   manhole
MH_824_16	-1.400000	8.800000	0.000000	0.000000	0.000000
;   manhole
MH_824_160	11.700000	6.200000	0.000000	0.000000	0.000000
;   manhole
MH_824_161	11.000000	8.400000	0.000000	0.000000	0.000000
;   manhole
MH_824_162	9.600000	10.300000	0.000000	0.000000	0.000000
;   manhole
MH_824_163	12.200000	6.700000	0.000000	0.000000	0.000000
;   manhole
MH_824_164	16.200000	3.800000	0.000000	0.000000	0.000000
;   manhole
MH_824_17	-0.100000	7.600000	0.000000	0.000000	0.000000
;   manhole
MH_824_18	3.600000	4.200000	0.000000	0.000000	0.000000
;   manhole
MH_824_19	-6.700000	12.800000	0.000000	0.000000	0.000000
;   manhole
MH_824_2	0.800000	5.700000	0.000000	0.000000	0.000000
;   manhole
MH_824_20	-0.500000	8.300000	0.000000	0.000000	0.000000
;   manhole
MH_824_21	4.300000	4.000000	0.000000	0.000000	0.000000
;   manhole
MH_824_22	2.400000	5.400000	0.000000	0.000000	0.000000
;   manhole
MH_824_23	2.100000	5.700000	0.000000	0.000000	0.000000
;   manhole
MH_824_24	5.300000	6.900000	0.000000	0.000000	0.000000
;   manhole
MH_824_25	-7.000000	14.800000	0.000000	0.000000	0.000000
;   manhole
MH_824_26	3.500000	4.100000	0.000000	0.000000	0.000000
;   manhole
MH_824_27	1.300000	6.000000	0.000000	0.000000	0.000000
;   manhole
MH_824_28	0.200000	7.600000	0.000000	0.000000	0.000000
;   manhole
MH_824_29	-0.900000	8.900000	0.000000	0.000000	0.000000
;   manhole
MH_824_3	0.200000	3.600000	0.000000	0.000000	0.000000
;   manhole
MH_824_30	-1.300000	9.100000	0.000000	0.000000	0.000000
;   manhole
MH_824_31	3.500000	3.700000	0.000000	0.000000	0.000000
;   manhole
MH_824_32	2.900000	4.800000	0.000000	0.000000	0.000000
;   manhole
MH_824_33	-5.300000	14.000000	0.000000	0.000000	0.000000
;   manhole
MH_824_34	-6.300000	15.200000	0.000000	0.000000	0.000000
;   manhole
MH_824_35	-1.900000	9.700000	0.000000	0.000000	0.000000
;   manhole
MH_824_36	2.000000	6.200000	0.000000	0.000000	0.000000
;   manhole
MH_824_37	-2.200000	9.700000	0.000000	0.000000	0.000000
;   manhole
MH_824_38	-2.500000	10.500000	0.000000	0.000000	0.000000
;   manhole
MH_824_39	1.800000	6.500000	0.000000	0.000000	0.000000
;   manhole
MH_824_4	1.600000	4.600000	0.000000	0.000000	0.000000
;   manhole
MH_824_40	0.400000	8.500000	0.000000	0.000000	0.000000
;   manhole
MH_824_41	7.300000	3.900000	0.000000	0.000000	0.000000
;   manhole
MH_824_42	4.500000	7.300000	0.000000	0.000000	0.000000
;   manhole
MH_824_43	3.200000	6.000000	0.000000	0.000000	0.000000
;   manhole
MH_824_44	0.500000	7.500000	0.000000	0.000000	0.000000
;   manhole
MH_824_45	-1.000000	8.800000	0.000000	0.000000	0.000000
;   manhole
MH_824_46	1.300000	7.000000	0.000000	0.000000	0.000000
;   manhole
MH_824_47	-4.000000	13.700000	0.000000	0.000000	0.000000
;   manhole
MH_824_48	1.100000	6.900000	0.000000	0.000000	0.000000
;   manhole
MH_824_49	6.400000	4.300000	0.000000	0.000000	0.000000
;   manhole
MH_824_5	-0.900000	7.000000	0.000000	0.000000	0.000000
;   manhole
MH_824_50	3.800000	7.300000	0.000000	0.000000	0.000000
;   manhole
MH_824_51	2.900000	7.300000	0.000000	0.000000	0.000000
;   manhole
MH_824_52	7.200000	4.000000	0.000000	0.000000	0.000000
;   manhole
MH_824_53	2.500000	5.800000	0.000000	0.000000	0.000000
;   manhole
MH_824_54	3.300000	4.700000	0.000000	0.000000	0.000000
;   manhole
MH_824_55	2.700000	8.200000	0.000000	0.000000	0.000000
;   manhole
MH_824_56	4.200000	4.000000	0.000000	0.000000	0.000000
;   manhole
MH_824_57	3.600000	4.500000	0.000000	0.000000	0.000000
;   manhole
MH_824_58	4.500000	3.800000	0.000000	0.000000	0.000000
;   manhole
MH_824_59	3.000000	7.500000	0.000000	0.000000	0.000000
;   manhole
MH_824_6	-3.000000	9.500000	0.000000	0.000000	0.000000
;   manhole
MH_824_60	-3.000000	15.000000	0.000000	0.000000	0.000000
;   manhole
MH_824_61	-1.600000	3.900000	0.000000	0.000000	0.000000
;   manhole
MH_824_62	4.000000	7.200000	0.000000	0.000000	0.000000
;   manhole
MH_824_63	0.100000	10.300000	0.000000	0.000000	0.000000
;   manhole
MH_824_64	0.000000	11.000000	0.000000	0.000000	0.000000
;   manhole
MH_824_65	4.300000	5.000000	0.000000	0.000000	0.000000
;   manhole
MH_824_66	6.000000	5.100000	0.000000	0.000000	0.000000
;   manhole
MH_824_67	1.500000	9.700000	0.000000	0.000000	0.000000
;   manhole
MH_824_68	5.000000	7.700000	0.000000	0.000000	0.000000
;   manhole
MH_824_69	10.100000	5.100000	0.000000	0.000000	0.000000
;   manhole
MH_824_7	-2.100000	8.900000	0.000000	0.000000	0.000000
;   manhole
MH_824_70	8.500000	8.000000	0.000000	0.000000	0.000000
;   manhole
MH_824_71	10.000000	4.800000	0.000000	0.000000	0.000000
;   manhole
MH_824_72	7.800000	4.600000	0.000000	0.000000	0.000000
;   manhole
MH_824_73	9.100000	6.500000	0.000000	0.000000	0.000000
;   manhole
MH_824_74	7.800000	8.000000	0.000000	0.000000	0.000000
;   manhole
MH_824_75	7.200000	4.900000	0.000000	0.000000	0.000000
;   manhole
MH_824_76	8.900000	4.700000	0.000000	0.000000	0.000000
;   manhole
MH_824_77	8.200000	4.700000	0.000000	0.000000	0.000000
;   manhole
MH_824_78	8.200000	4.700000	0.000000	0.000000	0.000000
;   manhole
MH_824_79	13.100000	3.800000	0.000000	0.000000	0.000000
;   manhole
MH_824_8	-3.700000	10.800000	0.000000	0.000000	0.000000
;   manhole
MH_824_80	7.300000	9.100000	0.000000	0.000000	0.000000
;   manhole
MH_824_81	11.600000	6.200000	0.000000	0.000000	0.000000
;   manhole
MH_824_82	3.200000	14.900000	0.000000	0.000000	0.000000
;   manhole
MH_824_83	4.300000	12.200000	0.000000	0.000000	0.000000
;   manhole
MH_824_84	3.900000	13.000000	0.000000	0.000000	0.000000
;   manhole
MH_824_85	5.500000	11.800000	0.000000	0.000000	0.000000
;   manhole
MH_824_86	6.300000	10.700000	0.000000	0.000000	0.000000
;   manhole
MH_824_87	10.900000	6.200000	0.000000	0.000000	0.000000
;   manhole
MH_824_88	2.600000	14.500000	0.000000	0.000000	0.000000
;   manhole
MH_824_89	2.100000	15.000000	0.000000	0.000000	0.000000
;   manhole
MH_824_9	2.800000	3.900000	0.000000	0.000000	0.000000
;   manhole
MH_824_90	7.600000	9.200000	0.000000	0.000000	0.000000
;   manhole
MH_824_91	8.700000	3.200000	0.000000	0.000000	0.000000
;   manhole
MH_824_92	11.400000	6.200000	0.000000	0.000000	0.000000
;   manhole
MH_824_93	7.800000	6.100000	0.000000	0.000000	0.000000
;   manhole
MH_824_94	7.100000	6.800000	0.000000	0.000000	0.000000
;   manhole
MH_824_95	5.600000	9.800000	0.000000	0.000000	0.000000
;   manhole
MH_824_96	5.800000	2.200000	0.000000	0.000000	0.000000
;   manhole
MH_824_97	10.300000	9.000000	0.000000	0.000000	0.000000
;   manhole
MH_824_98	11.700000	7.600000	0.000000	0.000000	0.000000
;   manhole
MH_824_99	14.600000	5.500000	0.000000	0.000000	0.000000
;   manhole
MH_825_10	0.300000	4.700000	0.000000	0.000000	0.000000
;   manhole
MH_825_11	-9.100000	13.400000	0.000000	0.000000	0.000000
;   manhole
MH_825_12	4.200000	4.800000	0.000000	0.000000	0.000000
;   manhole
MH_825_13	6.500000	7.100000	0.000000	0.000000	0.000000
;   manhole
MH_825_14	11.400000	5.200000	0.000000	0.000000	0.000000
;   manhole
MH_825_2	2.400000	9.600000	0.000000	0.000000	0.000000
;   manhole
MH_825_3	1.700000	11.300000	0.000000	0.000000	0.000000
;   manhole
MH_825_4	1.900000	9.600000	0.000000	0.000000	0.000000
;   manhole
MH_825_5	5.400000	6.300000	0.000000	0.000000	0.000000
;   manhole
MH_825_6	11.800000	4.700000	0.000000	0.000000	0.000000
;   manhole
MH_825_7	8.100000	7.300000	0.000000	0.000000	0.000000
;   manhole
MH_825_8	-2.200000	6.100000	0.000000	0.000000	0.000000
;   manhole
MH_825_9	-1.800000	5.400000	0.000000	0.000000	0.000000
;   manhole
MH_919_1	9.300000	10.900000	0.000000	0.000000	0.000000
;   manhole
MH_919_10	5.200000	10.500000	0.000000	0.000000	0.000000
;   manhole
MH_919_100	10.300000	5.500000	0.000000	0.000000	0.000000
;   manhole
MH_919_101	5.300000	2.800000	0.000000	0.000000	0.000000
;   manhole
MH_919_102	10.000000	5.500000	0.000000	0.000000	0.000000
;   manhole
MH_919_103	5.400000	12.000000	0.000000	0.000000	0.000000
;   manhole
MH_919_104	4.500000	8.000000	0.000000	0.000000	0.000000
;   manhole
MH_919_105	-1.000000	9.900000	0.000000	0.000000	0.000000
;   manhole
MH_919_106	11.700000	4.900000	0.000000	0.000000	0.000000
;   manhole
MH_919_107	10.600000	5.100000	0.000000	0.000000	0.000000
;   manhole
MH_919_108	4.400000	4.200000	0.000000	0.000000	0.000000
;   manhole
MH_919_109	2.000000	12.300000	0.000000	0.000000	0.000000
;   manhole
MH_919_11	13.200000	4.600000	0.000000	0.000000	0.000000
;   manhole
MH_919_110	4.400000	4.500000	0.000000	0.000000	0.000000
;   manhole
MH_919_111	2.100000	9.900000	0.000000	0.000000	0.000000
;   manhole
MH_919_112	8.500000	10.000000	0.000000	0.000000	0.000000
;   manhole
MH_919_113	5.100000	3.200000	0.000000	0.000000	0.000000
;   manhole
MH_919_114	11.700000	5.200000	0.000000	0.000000	0.000000
;   manhole
MH_919_115	3.300000	4.400000	0.000000	0.000000	0.000000
;   manhole
MH_919_116	2.500000	8.000000	0.000000	0.000000	0.000000
;   manhole
MH_919_117	2.500000	5.400000	0.000000	0.000000	0.000000
;   manhole
MH_919_118	5.800000	2.200000	0.000000	0.000000	0.000000
;   manhole
MH_919_119	2.900000	11.500000	0.000000	0.000000	0.000000
;   manhole
MH_919_12	12.100000	4.400000	0.000000	0.000000	0.000000
;   manhole
MH_919_120	-0.100000	9.400000	0.000000	0.000000	0.000000
;   manhole
MH_919_121	0.200000	9.700000	0.000000	0.000000	0.000000
;   manhole
MH_919_122	0.500000	9.400000	0.000000	0.000000	0.000000
;   manhole
MH_919_123	4.400000	11.800000	0.000000	0.000000	0.000000
;   manhole
MH_919_124	1.000000	7.700000	0.000000	0.000000	0.000000
;   manhole
MH_919_125	1.900000	7.100000	0.000000	0.000000	0.000000
;   manhole
MH_919_126	2.600000	10.300000	0.000000	0.000000	0.000000
;   manhole
MH_919_127	3.600000	11.000000	0.000000	0.000000	0.000000
;   manhole
MH_919_128	3.500000	6.200000	0.000000	0.000000	0.000000
;   manhole
MH_919_129	4.100000	12.200000	0.000000	0.000000	0.000000
;   manhole
MH_919_13	7.800000	12.200000	0.000000	0.000000	0.000000
;   manhole
MH_919_130	1.700000	7.700000	0.000000	0.000000	0.000000
;   manhole
MH_919_131	3.000000	9.600000	0.000000	0.000000	0.000000
;   manhole
MH_919_132	0.200000	10.200000	0.000000	0.000000	0.000000
;   manhole
MH_919_133	5.100000	4.700000	0.000000	0.000000	0.000000
;   manhole
MH_919_134	7.300000	11.700000	0.000000	0.000000	0.000000
;   manhole
MH_919_135	6.400000	12.300000	0.000000	0.000000	0.000000
;   manhole
MH_919_136	3.100000	8.200000	0.000000	0.000000	0.000000
;   manhole
MH_919_137	4.400000	11.400000	0.000000	0.000000	0.000000
;   manhole
MH_919_138	5.200000	10.900000	0.000000	0.000000	0.000000
;   manhole
MH_919_139	9.400000	3.700000	0.000000	0.000000	0.000000
;   manhole
MH_919_14	16.000000	4.200000	0.000000	0.000000	0.000000
;   manhole
MH_919_140	8.000000	4.800000	0.000000	0.000000	0.000000
;   manhole
MH_919_141	4.300000	7.600000	0.000000	0.000000	0.000000
;   manhole
MH_919_142	10.600000	8.100000	0.000000	0.000000	0.000000
;   manhole
MH_919_143	0.400000	7.500000	0.000000	0.000000	0.000000
;   manhole
MH_919_144	7.900000	2.200000	0.000000	0.000000	0.000000
;   manhole
MH_919_145	10.000000	4.600000	0.000000	0.000000	0.000000
;   manhole
MH_919_146	6.900000	6.000000	0.000000	0.000000	0.000000
;   manhole
MH_919_147	4.200000	7.400000	0.000000	0.000000	0.000000
;   manhole
MH_919_148	4.100000	8.400000	0.000000	0.000000	0.000000
;   manhole
MH_919_149	5.000000	6.000000	0.000000	0.000000	0.000000
;   manhole
MH_919_15	14.700000	3.700000	0.000000	0.000000	0.000000
;   manhole
MH_919_150	6.400000	4.400000	0.000000	0.000000	0.000000
;   manhole
MH_919_151	8.100000	3.700000	0.000000	0.000000	0.000000
;   manhole
MH_919_152	9.600000	2.500000	0.000000	0.000000	0.000000
;   manhole
MH_919_153	6.100000	9.600000	0.000000	0.000000	0.000000
;   manhole
MH_919_154	5.000000	7.500000	0.000000	0.000000	0.000000
;   manhole
MH_919_155	1.600000	5.900000	0.000000	0.000000	0.000000
;   manhole
MH_919_156	5.300000	3.000000	0.000000	0.000000	0.000000
;   manhole
MH_919_157	8.500000	4.800000	0.000000	0.000000	0.000000
;   manhole
MH_919_158	4.700000	4.800000	0.000000	0.000000	0.000000
;   manhole
MH_919_159	8.000000	5.900000	0.000000	0.000000	0.000000
;   manhole
MH_919_16	14.800000	2.500000	0.000000	0.000000	0.000000
;   manhole
MH_919_160	5.200000	8.700000	0.000000	0.000000	0.000000
;   manhole
MH_919_161	5.200000	4.500000	0.000000	0.000000	0.000000
;   manhole
MH_919_162	3.100000	6.900000	0.000000	0.000000	0.000000
;   manhole
MH_919_163	5.300000	6.200000	0.000000	0.000000	0.000000
;   manhole
MH_919_164	5.200000	5.200000	0.000000	0.000000	0.000000
;   manhole
MH_919_165	4.000000	6.500000	0.000000	0.000000	0.000000
;   manhole
MH_919_166	6.500000	3.700000	0.000000	0.000000	0.000000
;   manhole
MH_919_167	8.600000	3.500000	0.000000	0.000000	0.000000
;   manhole
MH_919_168	8.000000	2.700000	0.000000	0.000000	0.000000
;   manhole
MH_919_169	3.900000	7.400000	0.000000	0.000000	0.000000
;   manhole
MH_919_17	9.100000	5.700000	0.000000	0.000000	0.000000
;   manhole
MH_919_170	6.900000	4.600000	0.000000	0.000000	0.000000
;   manhole
MH_919_171	7.500000	6.000000	0.000000	0.000000	0.000000
;   manhole
MH_919_172	7.500000	3.500000	0.000000	0.000000	0.000000
;   manhole
MH_919_173	4.500000	5.100000	0.000000	0.000000	0.000000
;   manhole
MH_919_174	5.300000	3.600000	0.000000	0.000000	0.000000
;   manhole
MH_919_175	5.500000	3.700000	0.000000	0.000000	0.000000
;   manhole
MH_919_176	6.600000	3.600000	0.000000	0.000000	0.000000
;   manhole
MH_919_177	5.800000	5.000000	0.000000	0.000000	0.000000
;   manhole
MH_919_178	6.100000	3.700000	0.000000	0.000000	0.000000
;   manhole
MH_919_179	6.800000	5.000000	0.000000	0.000000	0.000000
;   manhole
MH_919_18	8.700000	6.800000	0.000000	0.000000	0.000000
;   manhole
MH_919_180	7.800000	4.500000	0.000000	0.000000	0.000000
;   manhole
MH_919_181	6.600000	5.900000	0.000000	0.000000	0.000000
;   manhole
MH_919_182	4.700000	7.100000	0.000000	0.000000	0.000000
;   manhole
MH_919_183	9.300000	3.000000	0.000000	0.000000	0.000000
;   manhole
MH_919_184	-0.600000	11.800000	0.000000	0.000000	0.000000
;   manhole
MH_919_185	-1.000000	11.000000	0.000000	0.000000	0.000000
;   manhole
MH_919_186	7.200000	3.500000	0.000000	0.000000	0.000000
;   manhole
MH_919_187	1.900000	9.800000	0.000000	0.000000	0.000000
;   manhole
MH_919_188	4.500000	5.000000	0.000000	0.000000	0.000000
;   manhole
MH_919_189	5.800000	6.100000	0.000000	0.000000	0.000000
;   manhole
MH_919_19	8.500000	7.700000	0.000000	0.000000	0.000000
;   manhole
MH_919_190	-1.700000	10.400000	0.000000	0.000000	0.000000
;   manhole
MH_919_191	-1.600000	11.300000	0.000000	0.000000	0.000000
;   manhole
MH_919_192	0.100000	11.100000	0.000000	0.000000	0.000000
;   manhole
MH_919_193	1.700000	8.000000	0.000000	0.000000	0.000000
;   manhole
MH_919_194	2.900000	3.500000	0.000000	0.000000	0.000000
;   manhole
MH_919_195	9.000000	3.500000	0.000000	0.000000	0.000000
;   manhole
MH_919_196	4.000000	4.200000	0.000000	0.000000	0.000000
;   manhole
MH_919_197	3.300000	10.200000	0.000000	0.000000	0.000000
;   manhole
MH_919_198	10.400000	3.500000	0.000000	0.000000	0.000000
;   manhole
MH_919_199	7.000000	4.100000	0.000000	0.000000	0.000000
;   manhole
MH_919_2	11.700000	7.600000	0.000000	0.000000	0.000000
;   manhole
MH_919_20	10.100000	6.000000	0.000000	0.000000	0.000000
;   manhole
MH_919_200	0.400000	9.200000	0.000000	0.000000	0.000000
;   manhole
MH_919_201	-0.300000	8.500000	0.000000	0.000000	0.000000
;   manhole
MH_919_202	1.400000	11.300000	0.000000	0.000000	0.000000
;   manhole
MH_919_203	2.100000	11.000000	0.000000	0.000000	0.000000
;   manhole
MH_919_204	2.600000	11.500000	0.000000	0.000000	0.000000
;   manhole
MH_919_205	1.700000	7.100000	0.000000	0.000000	0.000000
;   manhole
MH_919_206	2.400000	4.700000	0.000000	0.000000	0.000000
;   manhole
MH_919_207	4.500000	8.300000	0.000000	0.000000	0.000000
;   manhole
MH_919_208	1.300000	8.000000	0.000000	0.000000	0.000000
;   manhole
MH_919_209	5.000000	9.000000	0.000000	0.000000	0.000000
;   manhole
MH_919_21	10.600000	5.700000	0.000000	0.000000	0.000000
;   manhole
MH_919_210	5.600000	8.000000	0.000000	0.000000	0.000000
;   manhole
MH_919_211	8.400000	5.600000	0.000000	0.000000	0.000000
;   manhole
MH_919_212	4.100000	7.100000	0.000000	0.000000	0.000000
;   manhole
MH_919_213	5.800000	5.500000	0.000000	0.000000	0.000000
;   manhole
MH_919_214	4.700000	8.200000	0.000000	0.000000	0.000000
;   manhole
MH_919_215	2.900000	4.000000	0.000000	0.000000	0.000000
;   manhole
MH_919_216	9.500000	3.500000	0.000000	0.000000	0.000000
;   manhole
MH_919_217	5.200000	4.700000	0.000000	0.000000	0.000000
;   manhole
MH_919_218	9.200000	3.300000	0.000000	0.000000	0.000000
;   manhole
MH_919_219	7.500000	5.500000	0.000000	0.000000	0.000000
;   manhole
MH_919_22	9.400000	6.200000	0.000000	0.000000	0.000000
;   manhole
MH_919_220	6.800000	5.600000	0.000000	0.000000	0.000000
;   manhole
MH_919_221	-4.400000	8.900000	0.000000	0.000000	0.000000
;   manhole
MH_919_222	6.200000	4.800000	0.000000	0.000000	0.000000
;   manhole
MH_919_223	1.500000	5.500000	0.000000	0.000000	0.000000
;   manhole
MH_919_224	4.000000	3.500000	0.000000	0.000000	0.000000
;   manhole
MH_919_225	8.200000	3.600000	0.000000	0.000000	0.000000
;   manhole
MH_919_226	6.300000	1.800000	0.000000	0.000000	0.000000
;   manhole
MH_919_227	7.200000	13.100000	0.000000	0.000000	0.000000
;   manhole
MH_919_228	-3.900000	8.700000	0.000000	0.000000	0.000000
;   manhole
MH_919_229	0.400000	5.400000	0.000000	0.000000	0.000000
;   manhole
MH_919_23	12.600000	4.300000	0.000000	0.000000	0.000000
;   manhole
MH_919_230	0.700000	6.000000	0.000000	0.000000	0.000000
;   manhole
MH_919_231	9.500000	2.500000	0.000000	0.000000	0.000000
;   manhole
MH_919_232	8.900000	3.400000	0.000000	0.000000	0.000000
;   manhole
MH_919_233	2.000000	5.800000	0.000000	0.000000	0.000000
;   manhole
MH_919_234	3.400000	5.900000	0.000000	0.000000	0.000000
;   manhole
MH_919_24	11.500000	4.200000	0.000000	0.000000	0.000000
;   manhole
MH_919_25	9.100000	7.400000	0.000000	0.000000	0.000000
;   manhole
MH_919_26	15.500000	3.500000	0.000000	0.000000	0.000000
;   manhole
MH_919_27	-1.600000	11.300000	0.000000	0.000000	0.000000
;   manhole
MH_919_28	7.900000	9.100000	0.000000	0.000000	0.000000
;   manhole
MH_919_29	6.400000	13.800000	0.000000	0.000000	0.000000
;   manhole
MH_919_3	10.900000	9.600000	0.000000	0.000000	0.000000
;   manhole
MH_919_30	8.300000	8.300000	0.000000	0.000000	0.000000
;   manhole
MH_919_31	7.600000	11.800000	0.000000	0.000000	0.000000
;   manhole
MH_919_32	16.200000	5.900000	0.000000	0.000000	0.000000
;   manhole
MH_919_33	11.900000	3.700000	0.000000	0.000000	0.000000
;   manhole
MH_919_34	12.600000	3.900000	0.000000	0.000000	0.000000
;   manhole
MH_919_35	0.300000	6.200000	0.000000	0.000000	0.000000
;   manhole
MH_919_36	-2.700000	9.200000	0.000000	0.000000	0.000000
;   manhole
MH_919_37	2.000000	6.400000	0.000000	0.000000	0.000000
;   manhole
MH_919_38	9.800000	4.800000	0.000000	0.000000	0.000000
;   manhole
MH_919_39	7.200000	8.800000	0.000000	0.000000	0.000000
;   manhole
MH_919_4	10.900000	5.500000	0.000000	0.000000	0.000000
;   manhole
MH_919_40	9.400000	6.600000	0.000000	0.000000	0.000000
;   manhole
MH_919_41	3.600000	7.400000	0.000000	0.000000	0.000000
;   manhole
MH_919_42	6.700000	6.000000	0.000000	0.000000	0.000000
;   manhole
MH_919_43	5.300000	10.900000	0.000000	0.000000	0.000000
;   manhole
MH_919_44	5.100000	10.000000	0.000000	0.000000	0.000000
;   manhole
MH_919_45	10.700000	5.800000	0.000000	0.000000	0.000000
;   manhole
MH_919_46	9.700000	6.100000	0.000000	0.000000	0.000000
;   manhole
MH_919_47	9.000000	7.300000	0.000000	0.000000	0.000000
;   manhole
MH_919_48	-3.700000	9.600000	0.000000	0.000000	0.000000
;   manhole
MH_919_49	2.500000	6.600000	0.000000	0.000000	0.000000
;   manhole
MH_919_5	6.200000	11.600000	0.000000	0.000000	0.000000
;   manhole
MH_919_50	4.000000	6.200000	0.000000	0.000000	0.000000
;   manhole
MH_919_51	5.300000	6.500000	0.000000	0.000000	0.000000
;   manhole
MH_919_52	1.600000	5.700000	0.000000	0.000000	0.000000
;   manhole
MH_919_53	4.700000	6.100000	0.000000	0.000000	0.000000
;   manhole
MH_919_54	8.300000	6.300000	0.000000	0.000000	0.000000
;   manhole
MH_919_55	4.400000	7.200000	0.000000	0.000000	0.000000
;   manhole
MH_919_56	6.300000	6.700000	0.000000	0.000000	0.000000
;   manhole
MH_919_57	2.900000	9.100000	0.000000	0.000000	0.000000
;   manhole
MH_919_58	8.400000	8.100000	0.000000	0.000000	0.000000
;   manhole