[TITLE]
Scenario Run :  BASE

[OPTIONS]
;Option and Files Scenario Set: BASE, Base Simulation Options
FLOW_UNITS		MGD
INFILTRATION		HORTON
FLOW_ROUTING		DYNWAVE
LINK_OFFSETS		DEPTH
MIN_SLOPE		0.000000
ALLOW_PONDING		NO
SKIP_STEADY_STATE 	NO
IGNORE_RAINFALL		NO
IGNORE_SNOWMELT		NO
IGNORE_GROUNDWATER	NO
IGNORE_QUALITY		NO

START_DATE		05/14/2012
START_TIME		00:00
REPORT_START_DATE	05/14/2012
REPORT_START_TIME	00:00
END_DATE		05/16/2012
END_TIME		23:00
SWEEP_START		01/01
SWEEP_END		12/31
DRY_DAYS		0.000000
REPORT_STEP		00:05:00
WET_STEP		00:05:00
DRY_STEP		01:00:00
ROUTING_STEP		5

INERTIAL_DAMPING	NONE
NORMAL_FLOW_LIMITED	BOTH
FORCE_MAIN_EQUATION	H-W
VARIABLE_STEP		0.750000
LENGTHENING_STEP	4
MIN_SURFAREA		0.000000
MAX_TRIALS		8
HEAD_TOLERANCE	0.001000
MINIMUM_STEP		0.5


[FILES]
USE HOTSTART	"C:\Users\Robert E Dickinson\Desktop\InfoWorks Files\InfoWorks Files\IW 2020\IW 2020 WCSMPU.HSDB\hotstart_file.HSF"

[RAINGAGES]
1	INTENSITY	1.000000	1.000000	TIMESERIES	DUMMYRAINFALL		

[HYDROGRAPHS]

[EVAPORATION]
CONSTANT	0.000000
DRY_ONLY	NO

[TEMPERATURE]

[ADJUSTMENTS]

[SUBCATCHMENTS]
A-ST01	1	AST0050	0.000000	0.000000	246492.100001	0.000000	0.000000
A-ST02	1	AST0100	0.000000	0.000000	119153.100000	0.000000	0.000000
A-ST03	1	AST0220	0.000000	0.000000	334680.200001	0.000000	0.000000
A-ST04	1	AST2030	0.000000	0.000000	250718.900001	0.500000	0.000000
A-ST05	1	AST0040	0.000000	0.000000	245142.700001	0.000000	0.000000
A-ST06	1	AST2100	0.000000	0.000000	403667.000002	0.200000	0.000000
A-ST07	1	AST1060	0.000000	0.000000	172984.600001	0.400000	0.000000
A-ST08	1	AST1122	0.000000	0.000000	145607.400001	0.900000	0.000000
A-ST09	1	AST1150	0.000000	0.000000	227726.400001	0.700000	0.000000
A-ST10A	1	AST0350	0.000000	0.000000	202479.500001	0.000000	0.000000
A-ST10B	1	AST0370	0.000000	0.000000	433194.600002	0.600000	0.000000
A-ST10C	1	AST0390	0.000000	0.000000	310505.000001	0.600000	0.000000
A-ST10D	1	AST0390	0.000000	0.000000	110866.600000	0.600000	0.000000
A-ST11	1	AST1220	0.000000	0.000000	257739.100001	6.500000	0.000000
A-ST12	1	CRS0680	0.000000	0.000000	316309.100001	3.200000	0.000000
A-ST13	1	AST1470	0.000000	0.000000	251688.400001	1.300000	0.000000
A-ST14	1	AST1630	0.000000	0.000000	181297.200001	12.900000	0.000000
A-ST15	1	AST1580	0.000000	0.000000	509400.600002	0.800000	0.000000
A-ST16	1	AST1750	0.000000	0.000000	319274.200001	3.100000	0.000000
A-ST17	1	AST3766	0.000000	0.000000	572154.700002	11.100000	0.000000
A-ST18	1	AST1800	0.000000	0.000000	180670.300001	10.100000	0.000000
A-ST19	1	AST1890	0.000000	0.000000	220487.500001	1.700000	0.000000
A-ST20	1	AST1590	0.000000	0.000000	517166.100002	0.600000	0.000000
A-ST21	1	AST8170	0.000000	0.000000	489883.000002	2.700000	0.000000
A-ST22	1	AST0350	0.000000	0.000000	302868.600001	0.000000	0.000000
A-ST23	1	AST0080	0.000000	0.000000	318734.600001	0.500000	0.000000
CLAW01	1	CLW0060	0.000000	0.000000	158692.900001	0.300000	0.000000
CLAW02	1	CLW0100	0.000000	0.000000	199310.300001	0.500000	0.000000
CLAW03	1	CLW0120	0.000000	0.000000	298044.200001	0.100000	0.000000
CLAW04	1	CLW0150	0.000000	0.000000	263484.800001	0.200000	0.000000
CLAW05	1	CLW0180	0.000000	0.000000	257439.100001	0.300000	0.000000
CLAW06	1	CLW0230	0.000000	0.000000	171806.600001	0.000000	0.000000
CLAW07	1	CLW0270	0.000000	0.000000	116012.800000	0.100000	0.000000
CLAW08	1	CLW0063	0.000000	0.000000	225737.300001	0.700000	0.000000
CLAW09	1	CLW0071	0.000000	0.000000	266499.200001	0.800000	0.000000
CLAW10	1	CLW0074	0.000000	0.000000	240582.800001	1.600000	0.000000
HARD01	1	HRD0010	0.000000	0.000000	218495.500001	1.100000	0.000000
HARD02	1	HRD0034	0.000000	0.000000	226417.500001	0.600000	0.000000
HARD03	1	HRD0090	0.000000	0.000000	180383.100001	0.400000	0.000000
HARD04	1	HRD2060	0.000000	0.000000	274614.200001	0.100000	0.000000
HARD05	1	HRD0190	0.000000	0.000000	229014.900001	0.500000	0.000000
HARD06	1	HRD0230	0.000000	0.000000	156455.200001	1.400000	0.000000
HARD07	1	HRD0270	0.000000	0.000000	337362.300001	5.800000	0.000000
HARD08	1	HRD0350	0.000000	0.000000	151217.700001	0.100000	0.000000
HARD09	1	HRD0370	0.000000	0.000000	243377.000001	0.100000	0.000000
HARD10	1	HRD0430	0.000000	0.000000	154712.200001	0.000000	0.000000
HARD11	1	HRD1050	0.000000	0.000000	217955.900001	0.600000	0.000000
HARD12	1	HRD1080	0.000000	0.000000	431242.400002	1.100000	0.000000
HARD13	1	HRD0530	0.000000	0.000000	285589.600001	0.600000	0.000000
HARD14	1	HRD0620	0.000000	0.000000	328029.500001	0.300000	0.000000
HARD15	1	HRD0720	0.000000	0.000000	207615.200001	13.800000	0.000000
HARD16	1	HRD0750	0.000000	0.000000	155773.500001	8.300000	0.000000
HARD17	1	HRD0800	0.000000	0.000000	322301.300001	6.900000	0.000000
HARD18	1	HRD0546	0.000000	0.000000	350736.800001	0.900000	0.000000
INDU01	1	IND0060	0.000000	0.000000	292102.400001	0.000000	0.000000
INDU02	1	IND0130	0.000000	0.000000	350088.500001	0.600000	0.000000
INDU03	1	IND0260	0.000000	0.000000	273021.300001	0.400000	0.000000
INDU04	1	IND0295	0.000000	0.000000	190333.000001	1.300000	0.000000
INDU05	1	IND6220	0.000000	0.000000	235365.300001	0.900000	0.000000
INDU06	1	IND7090	0.000000	0.000000	202791.600001	0.700000	0.000000
INDU07	1	IND7030	0.000000	0.000000	175679.200001	0.300000	0.000000
INDU08	1	IND7100	0.000000	0.000000	258859.400001	0.300000	0.000000
INDU09	1	IND6150	0.000000	0.000000	250967.300001	0.100000	0.000000
INDU10A	1	IND6060	0.000000	0.000000	412588.900002	0.000000	0.000000
INDU10B	1	IND6020	0.000000	0.000000	214160.000001	0.200000	0.000000
INDU11	1	IND5210	0.000000	0.000000	153475.500001	0.000000	0.000000
INDU12	1	IND5180	0.000000	0.000000	222092.300001	1.300000	0.000000
INDU13	1	IND4160	0.000000	0.000000	361075.600001	0.300000	0.000000
INDU14	1	IND5120	0.000000	0.000000	157852.400001	0.300000	0.000000
INDU15	1	IND4120	0.000000	0.000000	202054.500001	0.300000	0.000000
INDU16	1	IND4100	0.000000	0.000000	199431.700001	0.000000	0.000000
INDU17	1	IND0445	0.000000	0.000000	295755.600001	0.000000	0.000000
INDU18	1	IND8080	0.000000	0.000000	361190.100001	1.200000	0.000000
INDU19	1	IND8000	0.000000	0.000000	258779.000001	0.000000	0.000000
INDU20	1	IND3061	0.000000	0.000000	229700.100001	0.200000	0.000000
INDU21	1	IND3091	0.000000	0.000000	167007.000001	0.300000	0.000000
INDU22	1	IND3131	0.000000	0.000000	198979.900001	0.400000	0.000000
INDU23	1	IND3151	0.000000	0.000000	324757.400001	0.300000	0.000000
INDU24	1	IND0640	0.000000	0.000000	258568.800001	0.200000	0.000000
INDU25	1	IND1060	0.000000	0.000000	235670.500001	0.200000	0.000000
INDU26	1	IND0740	0.000000	0.000000	265104.900001	2.200000	0.000000
INDU27	1	IND2070	0.000000	0.000000	351175.500001	0.100000	0.000000
INDU28	1	IND2110	0.000000	0.000000	256316.300001	0.000000	0.000000
INDU29	1	IND2120	0.000000	0.000000	324874.300001	0.700000	0.000000
INDU30	1	IND3160	0.000000	0.000000	297482.500001	0.900000	0.000000
INDU31	1	IND3156	0.000000	0.000000	220736.400001	0.600000	0.000000
INDU32	1	IND3280	0.000000	0.000000	551286.700002	0.600000	0.000000
INDU33	1	IND3320	0.000000	0.000000	396442.600002	0.300000	0.000000
INDU34	1	IND3504	0.000000	0.000000	242200.700001	1.600000	0.000000
INDU35	1	IND3518	0.000000	0.000000	248607.200001	1.400000	0.000000
INDU36	1	IND6170	0.000000	0.000000	340012.300001	0.200000	0.000000
INDU37	1	IND3518	0.000000	0.000000	223923.300001	1.400000	0.000000
RUSS01	1	RUS0060	0.000000	0.000000	438665.400002	0.300000	0.000000
RUSS02	1	RUS0150	0.000000	0.000000	331233.100001	0.500000	0.000000
RUSS03	1	RUS0210	0.000000	0.000000	231404.100001	0.300000	0.000000
RUSS04	1	RUS0290	0.000000	0.000000	235767.400001	0.200000	0.000000
RUSS05	1	RUS1030	0.000000	0.000000	178721.000001	0.700000	0.000000
RUSS06	1	RUS0340	0.000000	0.000000	242875.200001	0.100000	0.000000
RUSS07	1	RUS0390	0.000000	0.000000	282300.200001	0.400000	0.000000
RUSS08	1	RUS0440	0.000000	0.000000	437658.400002	0.200000	0.000000
TENY01A	1	TEN0080	0.000000	0.000000	289516.500001	0.700000	0.000000
TENY01B	1	TEN0130	0.000000	0.000000	164267.100001	1.600000	0.000000
TENY02	1	TEN0202	0.000000	0.000000	248410.800001	2.800000	0.000000
TENY03	1	TEN0250	0.000000	0.000000	274450.600001	1.200000	0.000000
TENY04	1	TEN0280	0.000000	0.000000	169384.300001	0.400000	0.000000
TENY05	1	TEN0320	0.000000	0.000000	203812.900001	2.400000	0.000000
TENY06	1	TEN0340	0.000000	0.000000	153739.200001	0.100000	0.000000
TENY07	1	TEN0370	0.000000	0.000000	226450.300001	0.900000	0.000000
TENY08	1	TEN0390	0.000000	0.000000	156755.800001	0.300000	0.000000
TENY09	1	TEN0450	0.000000	0.000000	347378.800001	1.900000	0.000000
TENY10	1	TEN3150	0.000000	0.000000	230921.400001	0.000000	0.000000
TENY11	1	TEN3190	0.000000	0.000000	335912.200001	0.000000	0.000000
TENY12	1	TEN3280	0.000000	0.000000	274041.800001	0.600000	0.000000
TENY13	1	TEN0570	0.000000	0.000000	272064.800001	0.900000	0.000000
TENY14	1	TEN2050	0.000000	0.000000	186322.400001	0.100000	0.000000
TENY15	1	TEN0600	0.000000	0.000000	218947.700001	0.300000	0.000000
TENY16	1	TEN0837	0.000000	0.000000	315308.500001	0.300000	0.000000
TENY17	1	TEN3370	0.000000	0.000000	252291.500001	0.100000	0.000000
TENY18	1	TEN0670	0.000000	0.000000	197305.300001	0.200000	0.000000
TENY19	1	TEN0720	0.000000	0.000000	174090.200001	0.300000	0.000000
TENY20	1	TEN0790	0.000000	0.000000	326755.000001	0.200000	0.000000
TENY21	1	TEN0800	0.000000	0.000000	341490.500001	0.300000	0.000000
TENY22	1	TEN0950	0.000000	0.000000	334575.100001	2.200000	0.000000
TENY23	1	TEN0860	0.000000	0.000000	357244.600001	2.000000	0.000000

[SUBAREAS]
A-ST01	0.000000	0.000000	0.000000	0.000000	0.000000	OUTLET
A-ST02	0.000000	0.000000	0.000000	0.000000	0.000000	OUTLET
A-ST03	0.000000	0.000000	0.000000	0.000000	0.000000	OUTLET
A-ST04	0.000000	0.000000	0.000000	0.000000	0.000000	OUTLET
A-ST05	0.000000	0.000000	0.000000	0.000000	0.000000	OUTLET
A-ST06	0.000000	0.000000	0.000000	0.000000	0.000000	OUTLET
A-ST07	0.000000	0.000000	0.000000	0.000000	0.000000	OUTLET
A-ST08	0.000000	0.000000	0.000000	0.000000	0.000000	OUTLET
A-ST09	0.000000	0.000000	0.000000	0.000000	0.000000	OUTLET
A-ST10A	0.000000	0.000000	0.000000	0.000000	0.000000	OUTLET
A-ST10B	0.000000	0.000000	0.000000	0.000000	0.000000	OUTLET
A-ST10C	0.000000	0.000000	0.000000	0.000000	0.000000	OUTLET
A-ST10D	0.000000	0.000000	0.000000	0.000000	0.000000	OUTLET
A-ST11	0.000000	0.000000	0.000000	0.000000	0.000000	OUTLET
A-ST12	0.000000	0.000000	0.000000	0.000000	0.000000	OUTLET
A-ST13	0.000000	0.000000	0.000000	0.000000	0.000000	OUTLET
A-ST14	0.000000	0.000000	0.000000	0.000000	0.000000	OUTLET
A-ST15	0.000000	0.000000	0.000000	0.000000	0.000000	OUTLET
A-ST16	0.000000	0.000000	0.000000	0.000000	0.000000	OUTLET
A-ST17	0.000000	0.000000	0.000000	0.000000	0.000000	OUTLET
A-ST18	0.000000	0.000000	0.000000	0.000000	0.000000	OUTLET
A-ST19	0.000000	0.000000	0.000000	0.000000	0.000000	OUTLET
A-ST20	0.000000	0.000000	0.000000	0.000000	0.000000	OUTLET
A-ST21	0.000000	0.000000	0.000000	0.000000	0.000000	OUTLET
A-ST22	0.000000	0.000000	0.000000	0.000000	0.000000	OUTLET
A-ST23	0.000000	0.000000	0.000000	0.000000	0.000000	OUTLET
CLAW01	0.000000	0.000000	0.000000	0.000000	0.000000	OUTLET
CLAW02	0.000000	0.000000	0.000000	0.000000	0.000000	OUTLET
CLAW03	0.000000	0.000000	0.000000	0.000000	0.000000	OUTLET
CLAW04	0.000000	0.000000	0.000000	0.000000	0.000000	OUTLET
CLAW05	0.000000	0.000000	0.000000	0.000000	0.000000	OUTLET
CLAW06	0.000000	0.000000	0.000000	0.000000	0.000000	OUTLET
CLAW07	0.000000	0.000000	0.000000	0.000000	0.000000	OUTLET
CLAW08	0.000000	0.000000	0.000000	0.000000	0.000000	OUTLET
CLAW09	0.000000	0.000000	0.000000	0.000000	0.000000	OUTLET
CLAW10	0.000000	0.000000	0.000000	0.000000	0.000000	OUTLET
HARD01	0.000000	0.000000	0.000000	0.000000	0.000000	OUTLET
HARD02	0.000000	0.000000	0.000000	0.000000	0.000000	OUTLET
HARD03	0.000000	0.000000	0.000000	0.000000	0.000000	OUTLET
HARD04	0.000000	0.000000	0.000000	0.000000	0.000000	OUTLET
HARD05	0.000000	0.000000	0.000000	0.000000	0.000000	OUTLET
HARD06	0.000000	0.000000	0.000000	0.000000	0.000000	OUTLET
HARD07	0.000000	0.000000	0.000000	0.000000	0.000000	OUTLET
HARD08	0.000000	0.000000	0.000000	0.000000	0.000000	OUTLET
HARD09	0.000000	0.000000	0.000000	0.000000	0.000000	OUTLET
HARD10	0.000000	0.000000	0.000000	0.000000	0.000000	OUTLET
HARD11	0.000000	0.000000	0.000000	0.000000	0.000000	OUTLET
HARD12	0.000000	0.000000	0.000000	0.000000	0.000000	OUTLET
HARD13	0.000000	0.000000	0.000000	0.000000	0.000000	OUTLET
HARD14	0.000000	0.000000	0.000000	0.000000	0.000000	OUTLET
HARD15	0.000000	0.000000	0.000000	0.000000	0.000000	OUTLET
HARD16	0.000000	0.000000	0.000000	0.000000	0.000000	OUTLET
HARD17	0.000000	0.000000	0.000000	0.000000	0.000000	OUTLET
HARD18	0.000000	0.000000	0.000000	0.000000	0.000000	OUTLET
INDU01	0.000000	0.000000	0.000000	0.000000	0.000000	OUTLET
INDU02	0.000000	0.000000	0.000000	0.000000	0.000000	OUTLET
INDU03	0.000000	0.000000	0.000000	0.000000	0.000000	OUTLET
INDU04	0.000000	0.000000	0.000000	0.000000	0.000000	OUTLET
INDU05	0.000000	0.000000	0.000000	0.000000	0.000000	OUTLET
INDU06	0.000000	0.000000	0.000000	0.000000	0.000000	OUTLET
INDU07	0.000000	0.000000	0.000000	0.000000	0.000000	OUTLET
INDU08	0.000000	0.000000	0.000000	0.000000	0.000000	OUTLET
INDU09	0.000000	0.000000	0.000000	0.000000	0.000000	OUTLET
INDU10A	0.000000	0.000000	0.000000	0.000000	0.000000	OUTLET
INDU10B	0.000000	0.000000	0.000000	0.000000	0.000000	OUTLET
INDU11	0.000000	0.000000	0.000000	0.000000	0.000000	OUTLET
INDU12	0.000000	0.000000	0.000000	0.000000	0.000000	OUTLET
INDU13	0.000000	0.000000	0.000000	0.000000	0.000000	OUTLET
INDU14	0.000000	0.000000	0.000000	0.000000	0.000000	OUTLET
INDU15	0.000000	0.000000	0.000000	0.000000	0.000000	OUTLET
INDU16	0.000000	0.000000	0.000000	0.000000	0.000000	OUTLET
INDU17	0.000000	0.000000	0.000000	0.000000	0.000000	OUTLET
INDU18	0.000000	0.000000	0.000000	0.000000	0.000000	OUTLET
INDU19	0.000000	0.000000	0.000000	0.000000	0.000000	OUTLET
INDU20	0.000000	0.000000	0.000000	0.000000	0.000000	OUTLET
INDU21	0.000000	0.000000	0.000000	0.000000	0.000000	OUTLET
INDU22	0.000000	0.000000	0.000000	0.000000	0.000000	OUTLET
INDU23	0.000000	0.000000	0.000000	0.000000	0.000000	OUTLET
INDU24	0.000000	0.000000	0.000000	0.000000	0.000000	OUTLET
INDU25	0.000000	0.000000	0.000000	0.000000	0.000000	OUTLET
INDU26	0.000000	0.000000	0.000000	0.000000	0.000000	OUTLET
INDU27	0.000000	0.000000	0.000000	0.000000	0.000000	OUTLET
INDU28	0.000000	0.000000	0.000000	0.000000	0.000000	OUTLET
INDU29	0.000000	0.000000	0.000000	0.000000	0.000000	OUTLET
INDU30	0.000000	0.000000	0.000000	0.000000	0.000000	OUTLET
INDU31	0.000000	0.000000	0.000000	0.000000	0.000000	OUTLET
INDU32	0.000000	0.000000	0.000000	0.000000	0.000000	OUTLET
INDU33	0.000000	0.000000	0.000000	0.000000	0.000000	OUTLET
INDU34	0.000000	0.000000	0.000000	0.000000	0.000000	OUTLET
INDU35	0.000000	0.000000	0.000000	0.000000	0.000000	OUTLET
INDU36	0.000000	0.000000	0.000000	0.000000	0.000000	OUTLET
INDU37	0.000000	0.000000	0.000000	0.000000	0.000000	OUTLET
RUSS01	0.000000	0.000000	0.000000	0.000000	0.000000	OUTLET
RUSS02	0.000000	0.000000	0.000000	0.000000	0.000000	OUTLET
RUSS03	0.000000	0.000000	0.000000	0.000000	0.000000	OUTLET
RUSS04	0.000000	0.000000	0.000000	0.000000	0.000000	OUTLET
RUSS05	0.000000	0.000000	0.000000	0.000000	0.000000	OUTLET
RUSS06	0.000000	0.000000	0.000000	0.000000	0.000000	OUTLET
RUSS07	0.000000	0.000000	0.000000	0.000000	0.000000	OUTLET
RUSS08	0.000000	0.000000	0.000000	0.000000	0.000000	OUTLET
TENY01A	0.000000	0.000000	0.000000	0.000000	0.000000	OUTLET
TENY01B	0.000000	0.000000	0.000000	0.000000	0.000000	OUTLET
TENY02	0.000000	0.000000	0.000000	0.000000	0.000000	OUTLET
TENY03	0.000000	0.000000	0.000000	0.000000	0.000000	OUTLET
TENY04	0.000000	0.000000	0.000000	0.000000	0.000000	OUTLET
TENY05	0.000000	0.000000	0.000000	0.000000	0.000000	OUTLET
TENY06	0.000000	0.000000	0.000000	0.000000	0.000000	OUTLET
TENY07	0.000000	0.000000	0.000000	0.000000	0.000000	OUTLET
TENY08	0.000000	0.000000	0.000000	0.000000	0.000000	OUTLET
TENY09	0.000000	0.000000	0.000000	0.000000	0.000000	OUTLET
TENY10	0.000000	0.000000	0.000000	0.000000	0.000000	OUTLET
TENY11	0.000000	0.000000	0.000000	0.000000	0.000000	OUTLET
TENY12	0.000000	0.000000	0.000000	0.000000	0.000000	OUTLET
TENY13	0.000000	0.000000	0.000000	0.000000	0.000000	OUTLET
TENY14	0.000000	0.000000	0.000000	0.000000	0.000000	OUTLET
TENY15	0.000000	0.000000	0.000000	0.000000	0.000000	OUTLET
TENY16	0.000000	0.000000	0.000000	0.000000	0.000000	OUTLET
TENY17	0.000000	0.000000	0.000000	0.000000	0.000000	OUTLET
TENY18	0.000000	0.000000	0.000000	0.000000	0.000000	OUTLET
TENY19	0.000000	0.000000	0.000000	0.000000	0.000000	OUTLET
TENY20	0.000000	0.000000	0.000000	0.000000	0.000000	OUTLET
TENY21	0.000000	0.000000	0.000000	0.000000	0.000000	OUTLET
TENY22	0.000000	0.000000	0.000000	0.000000	0.000000	OUTLET
TENY23	0.000000	0.000000	0.000000	0.000000	0.000000	OUTLET

[INFILTRATION]
A-ST01	0.000000	0.000000	0.000000	999.000000	0.000000
A-ST02	0.000000	0.000000	0.000000	999.000000	0.000000
A-ST03	0.000000	0.000000	0.000000	999.000000	0.000000
A-ST04	0.000000	0.000000	0.000000	999.000000	0.000000
A-ST05	0.000000	0.000000	0.000000	999.000000	0.000000
A-ST06	0.000000	0.000000	0.000000	999.000000	0.000000
A-ST07	0.000000	0.000000	0.000000	999.000000	0.000000
A-ST08	0.000000	0.000000	0.000000	999.000000	0.000000
A-ST09	0.000000	0.000000	0.000000	999.000000	0.000000
A-ST10A	0.000000	0.000000	0.000000	999.000000	0.000000
A-ST10B	0.000000	0.000000	0.000000	999.000000	0.000000
A-ST10C	0.000000	0.000000	0.000000	999.000000	0.000000
A-ST10D	0.000000	0.000000	0.000000	999.000000	0.000000
A-ST11	0.000000	0.000000	0.000000	999.000000	0.000000
A-ST12	0.000000	0.000000	0.000000	999.000000	0.000000
A-ST13	0.000000	0.000000	0.000000	999.000000	0.000000
A-ST14	0.000000	0.000000	0.000000	999.000000	0.000000
A-ST15	0.000000	0.000000	0.000000	999.000000	0.000000
A-ST16	0.000000	0.000000	0.000000	999.000000	0.000000
A-ST17	0.000000	0.000000	0.000000	999.000000	0.000000
A-ST18	0.000000	0.000000	0.000000	999.000000	0.000000
A-ST19	0.000000	0.000000	0.000000	999.000000	0.000000
A-ST20	0.000000	0.000000	0.000000	999.000000	0.000000
A-ST21	0.000000	0.000000	0.000000	999.000000	0.000000
A-ST22	0.000000	0.000000	0.000000	999.000000	0.000000
A-ST23	0.000000	0.000000	0.000000	999.000000	0.000000
CLAW01	0.000000	0.000000	0.000000	999.000000	0.000000
CLAW02	0.000000	0.000000	0.000000	999.000000	0.000000
CLAW03	0.000000	0.000000	0.000000	999.000000	0.000000
CLAW04	0.000000	0.000000	0.000000	999.000000	0.000000
CLAW05	0.000000	0.000000	0.000000	999.000000	0.000000
CLAW06	0.000000	0.000000	0.000000	999.000000	0.000000
CLAW07	0.000000	0.000000	0.000000	999.000000	0.000000
CLAW08	0.000000	0.000000	0.000000	999.000000	0.000000
CLAW09	0.000000	0.000000	0.000000	999.000000	0.000000
CLAW10	0.000000	0.000000	0.000000	999.000000	0.000000
HARD01	0.000000	0.000000	0.000000	999.000000	0.000000
HARD02	0.000000	0.000000	0.000000	999.000000	0.000000
HARD03	0.000000	0.000000	0.000000	999.000000	0.000000
HARD04	0.000000	0.000000	0.000000	999.000000	0.000000
HARD05	0.000000	0.000000	0.000000	999.000000	0.000000
HARD06	0.000000	0.000000	0.000000	999.000000	0.000000
HARD07	0.000000	0.000000	0.000000	999.000000	0.000000
HARD08	0.000000	0.000000	0.000000	999.000000	0.000000
HARD09	0.000000	0.000000	0.000000	999.000000	0.000000
HARD10	0.000000	0.000000	0.000000	999.000000	0.000000
HARD11	0.000000	0.000000	0.000000	999.000000	0.000000
HARD12	0.000000	0.000000	0.000000	999.000000	0.000000
HARD13	0.000000	0.000000	0.000000	999.000000	0.000000
HARD14	0.000000	0.000000	0.000000	999.000000	0.000000
HARD15	0.000000	0.000000	0.000000	999.000000	0.000000
HARD16	0.000000	0.000000	0.000000	999.000000	0.000000
HARD17	0.000000	0.000000	0.000000	999.000000	0.000000
HARD18	0.000000	0.000000	0.000000	999.000000	0.000000
INDU01	0.000000	0.000000	0.000000	999.000000	0.000000
INDU02	0.000000	0.000000	0.000000	999.000000	0.000000
INDU03	0.000000	0.000000	0.000000	999.000000	0.000000
INDU04	0.000000	0.000000	0.000000	999.000000	0.000000
INDU05	0.000000	0.000000	0.000000	999.000000	0.000000
INDU06	0.000000	0.000000	0.000000	999.000000	0.000000
INDU07	0.000000	0.000000	0.000000	999.000000	0.000000
INDU08	0.000000	0.000000	0.000000	999.000000	0.000000
INDU09	0.000000	0.000000	0.000000	999.000000	0.000000
INDU10A	0.000000	0.000000	0.000000	999.000000	0.000000
INDU10B	0.000000	0.000000	0.000000	999.000000	0.000000
INDU11	0.000000	0.000000	0.000000	999.000000	0.000000
INDU12	0.000000	0.000000	0.000000	999.000000	0.000000
INDU13	0.000000	0.000000	0.000000	999.000000	0.000000
INDU14	0.000000	0.000000	0.000000	999.000000	0.000000
INDU15	0.000000	0.000000	0.000000	999.000000	0.000000
INDU16	0.000000	0.000000	0.000000	999.000000	0.000000
INDU17	0.000000	0.000000	0.000000	999.000000	0.000000
INDU18	0.000000	0.000000	0.000000	999.000000	0.000000
INDU19	0.000000	0.000000	0.000000	999.000000	0.000000
INDU20	0.000000	0.000000	0.000000	999.000000	0.000000
INDU21	0.000000	0.000000	0.000000	999.000000	0.000000
INDU22	0.000000	0.000000	0.000000	999.000000	0.000000
INDU23	0.000000	0.000000	0.000000	999.000000	0.000000
INDU24	0.000000	0.000000	0.000000	999.000000	0.000000
INDU25	0.000000	0.000000	0.000000	999.000000	0.000000
INDU26	0.000000	0.000000	0.000000	999.000000	0.000000
INDU27	0.000000	0.000000	0.000000	999.000000	0.000000
INDU28	0.000000	0.000000	0.000000	999.000000	0.000000
INDU29	0.000000	0.000000	0.000000	999.000000	0.000000
INDU30	0.000000	0.000000	0.000000	999.000000	0.000000
INDU31	0.000000	0.000000	0.000000	999.000000	0.000000
INDU32	0.000000	0.000000	0.000000	999.000000	0.000000
INDU33	0.000000	0.000000	0.000000	999.000000	0.000000
INDU34	0.000000	0.000000	0.000000	999.000000	0.000000
INDU35	0.000000	0.000000	0.000000	999.000000	0.000000
INDU36	0.000000	0.000000	0.000000	999.000000	0.000000
INDU37	0.000000	0.000000	0.000000	999.000000	0.000000
RUSS01	0.000000	0.000000	0.000000	999.000000	0.000000
RUSS02	0.000000	0.000000	0.000000	999.000000	0.000000
RUSS03	0.000000	0.000000	0.000000	999.000000	0.000000
RUSS04	0.000000	0.000000	0.000000	999.000000	0.000000
RUSS05	0.000000	0.000000	0.000000	999.000000	0.000000
RUSS06	0.000000	0.000000	0.000000	999.000000	0.000000
RUSS07	0.000000	0.000000	0.000000	999.000000	0.000000
RUSS08	0.000000	0.000000	0.000000	999.000000	0.000000
TENY01A	0.000000	0.000000	0.000000	999.000000	0.000000
TENY01B	0.000000	0.000000	0.000000	999.000000	0.000000
TENY02	0.000000	0.000000	0.000000	999.000000	0.000000
TENY03	0.000000	0.000000	0.000000	999.000000	0.000000
TENY04	0.000000	0.000000	0.000000	999.000000	0.000000
TENY05	0.000000	0.000000	0.000000	999.000000	0.000000
TENY06	0.000000	0.000000	0.000000	999.000000	0.000000
TENY07	0.000000	0.000000	0.000000	999.000000	0.000000
TENY08	0.000000	0.000000	0.000000	999.000000	0.000000
TENY09	0.000000	0.000000	0.000000	999.000000	0.000000
TENY10	0.000000	0.000000	0.000000	999.000000	0.000000
TENY11	0.000000	0.000000	0.000000	999.000000	0.000000
TENY12	0.000000	0.000000	0.000000	999.000000	0.000000
TENY13	0.000000	0.000000	0.000000	999.000000	0.000000
TENY14	0.000000	0.000000	0.000000	999.000000	0.000000
TENY15	0.000000	0.000000	0.000000	999.000000	0.000000
TENY16	0.000000	0.000000	0.000000	999.000000	0.000000
TENY17	0.000000	0.000000	0.000000	999.000000	0.000000
TENY18	0.000000	0.000000	0.000000	999.000000	0.000000
TENY19	0.000000	0.000000	0.000000	999.000000	0.000000
TENY20	0.000000	0.000000	0.000000	999.000000	0.000000
TENY21	0.000000	0.000000	0.000000	999.000000	0.000000
TENY22	0.000000	0.000000	0.000000	999.000000	0.000000
TENY23	0.000000	0.000000	0.000000	999.000000	0.000000

[AQUIFERS]

[GROUNDWATER]

[GWF]

[SNOWPACKS]

[JUNCTIONS]
AST0010	24.150000	14.750000	0.000000	0.000000	132025423.733304
AST0020	24.650000	12.350000	0.000000	0.000000	132025423.733304
AST0030	25.200000	10.800000	0.000000	0.000000	132025423.733304
AST0040	25.400000	11.800000	0.000000	0.000000	132025423.733304
AST0050	25.750000	11.050000	0.000000	0.000000	132025423.733304
AST0060	26.200000	10.100000	0.000000	0.000000	132025423.733304
AST0070	26.700000	9.700000	0.000000	0.000000	132025423.733304
AST0080	29.200000	8.600000	0.000000	0.000000	132025423.733304
AST0090	29.870000	7.930000	0.000000	0.000000	132025423.733304
AST0100	31.110000	8.490000	0.000000	0.000000	132025423.733304
AST0110	31.210000	7.890000	0.000000	0.000000	132025423.733304
AST0120	32.400000	8.800000	0.000000	0.000000	132025423.733304
AST0130	32.840000	10.160000	0.000000	0.000000	132025423.733304
AST0140	33.120000	10.180000	0.000000	0.000000	132025423.733304
AST0150	36.280000	9.420000	0.000000	0.000000	132025423.733304
AST0160	36.700000	11.100000	0.000000	0.000000	132025423.733304
AST0170	41.650000	8.350000	0.000000	0.000000	132025423.733304
AST0180	45.000000	6.600000	0.000000	0.000000	132025423.733304
AST0190	46.500000	8.400000	0.000000	0.000000	132025423.733304
AST0200	48.380000	9.320000	0.000000	0.000000	132025423.733304
AST0210	50.440000	10.560000	0.000000	0.000000	132025423.733304
AST0220	50.980000	9.820000	0.000000	0.000000	132025423.733304
AST0230	53.640000	11.660000	0.000000	0.000000	132025423.733304
AST0240	55.830000	12.950000	0.000000	0.000000	132025423.733304
AST0250	56.060000	13.050000	0.000000	0.000000	132025423.733304
AST0260	58.300000	12.070000	0.000000	0.000000	132025423.733304
AST0262	59.420000	11.080000	0.000000	0.000000	132025423.733304
AST0270	59.520000	11.700000	0.000000	0.000000	132025423.733304
AST0280	60.200000	11.100000	0.000000	0.000000	132025423.733304
AST0290	64.230000	10.970000	0.000000	0.000000	132025423.733304
AST0300	66.760000	11.140000	0.000000	0.000000	132025423.733304
AST0310	70.320000	10.880000	0.000000	0.000000	132025423.733304
AST0320	73.880000	9.220000	0.000000	0.000000	132025423.733304
AST0330	77.500000	11.300000	0.000000	0.000000	132025423.733304
AST0340	84.500000	13.600000	0.000000	0.000000	132025423.733304
AST0350	86.120000	11.980000	0.000000	0.000000	132025423.733304
AST0360	87.600000	12.800000	0.000000	0.000000	132025423.733304
AST0370	88.240000	13.960000	0.000000	0.000000	132025423.733304
AST0380	91.970000	13.130000	0.000000	0.000000	132025423.733304
AST0390	94.000000	8.430000	0.000000	0.000000	132025423.733304
AST0833	67.280000	6.200000	0.000000	0.000000	132025423.733304
AST0834	68.770000	6.170000	0.000000	0.000000	132025423.733304
AST0835	69.140000	7.300000	0.000000	0.000000	132025423.733304
AST1010	57.030000	12.000000	0.000000	0.000000	132025423.733304
AST1020	58.600000	11.230000	0.000000	0.000000	132025423.733304
AST1030	60.160000	10.340000	0.000000	0.000000	132025423.733304
AST1040	61.690000	8.910000	0.000000	0.000000	132025423.733304
AST1050	63.300000	7.000000	0.000000	0.000000	132025423.733304
AST1060	64.290000	7.110000	0.000000	0.000000	132025423.733304
AST1070	65.660000	6.640000	0.000000	0.000000	132025423.733304
AST1080	66.620000	6.880000	0.000000	0.000000	132025423.733304
AST1090	67.700000	8.500000	0.000000	0.000000	132025423.733304
AST1100	68.730000	9.570000	0.000000	0.000000	132025423.733304
AST1110	70.130000	9.270000	0.000000	0.000000	132025423.733304
AST1120	70.580000	10.060000	0.000000	0.000000	132025423.733304
AST1121	77.000000	4.900000	0.000000	0.000000	132025423.733304
AST1122	80.040000	5.260000	0.000000	0.000000	132025423.733304
AST1130	70.730000	9.910000	0.000000	0.000000	132025423.733304
AST1140	72.200000	9.680000	0.000000	0.000000	132025423.733304
AST1150	73.440000	10.870000	0.000000	0.000000	132025423.733304
AST1160	75.030000	11.030000	0.000000	0.000000	132025423.733304
AST1170	76.920000	15.230000	0.000000	0.000000	132025423.733304
AST1180	78.850000	12.150000	0.000000	0.000000	132025423.733304
AST1190	80.720000	10.280000	0.000000	0.000000	132025423.733304
AST1200	81.000000	10.000000	0.000000	0.000000	132025423.733304
AST1210	82.120000	8.880000	0.000000	0.000000	132025423.733304
AST1220	82.450000	10.450000	0.000000	0.000000	132025423.733304
AST1230	83.260000	9.640000	0.000000	0.000000	132025423.733304
AST1240	83.580000	9.120000	0.000000	0.000000	132025423.733304
AST1250	84.670000	7.430000	0.000000	0.000000	132025423.733304
AST1260	85.100000	6.700000	0.000000	0.000000	132025423.733304
AST1270	85.650000	5.850000	0.000000	0.000000	132025423.733304
AST1280	86.950000	5.250000	0.000000	0.000000	132025423.733304
AST1290	91.690000	8.510000	0.000000	0.000000	132025423.733304
AST1300	94.800000	8.200000	0.000000	0.000000	132025423.733304
AST1310	99.700000	7.900000	0.000000	0.000000	132025423.733304
AST1320	100.420000	11.580000	0.000000	0.000000	132025423.733304
AST1330	102.040000	10.890000	0.000000	0.000000	132025423.733304
AST1340	106.000000	6.900000	0.000000	0.000000	132025423.733304
AST1350	113.970000	11.030000	0.000000	0.000000	132025423.733304
AST1360	121.170000	4.230000	0.000000	0.000000	132025423.733304
AST1370	123.400000	4.600000	0.000000	0.000000	132025423.733304
AST1380	162.800000	10.000000	0.000000	0.000000	132025423.733304
AST1390	171.500000	8.100000	0.000000	0.000000	132025423.733304
AST1400	182.800000	8.300000	0.000000	0.000000	132025423.733304
AST1410	185.700000	3.400000	0.000000	0.000000	132025423.733304
AST1420	209.000000	11.000000	0.000000	0.000000	132025423.733304
AST1430	244.200000	5.300000	0.000000	0.000000	132025423.733304
AST1440	249.300000	5.700000	0.000000	0.000000	132025423.733304
AST1450	252.300000	5.900000	0.000000	0.000000	132025423.733304
AST1460	255.400000	6.600000	0.000000	0.000000	132025423.733304
AST1470	256.400000	8.200000	0.000000	0.000000	132025423.733304
AST1480	268.500000	6.600000	0.000000	0.000000	132025423.733304
AST1490	302.300000	14.200000	0.000000	0.000000	132025423.733304
AST1500	307.200000	11.600000	0.000000	0.000000	132025423.733304
AST1510	308.200000	2.300000	0.000000	0.000000	132025423.733304
AST1520	308.500000	2.100000	0.000000	0.000000	132025423.733304
AST1530	309.100000	2.600000	0.000000	0.000000	132025423.733304
AST1540	309.600000	2.100000	0.000000	0.000000	132025423.733304
AST1550	310.200000	7.300000	0.000000	0.000000	132025423.733304
AST1560	310.800000	7.700000	0.000000	0.000000	132025423.733304
AST1570	311.400000	5.600000	0.000000	0.000000	132025423.733304
AST1580	312.600000	6.900000	0.000000	0.000000	132025423.733304