[TITLE]
;;Project Title/Notes
Scenario Run :  BASE

[OPTIONS]
;;Option             Value
FLOW_UNITS           LPS
INFILTRATION         HORTON
FLOW_ROUTING         DYNWAVE
LINK_OFFSETS         DEPTH
MIN_SLOPE            0
ALLOW_PONDING        NO
SKIP_STEADY_STATE    NO

START_DATE           01/01/2222
START_TIME           00:00:00
REPORT_START_DATE    01/01/2222
REPORT_START_TIME    00:00:00
END_DATE             01/02/2222
END_TIME             00:00:00
SWEEP_START          01/01
SWEEP_END            01/02
DRY_DAYS             0.000000
REPORT_STEP          00:01:00
WET_STEP             00:05:00
DRY_STEP             01:00:00
ROUTING_STEP         0:00:01 

INERTIAL_DAMPING     NONE
NORMAL_FLOW_LIMITED  BOTH
FORCE_MAIN_EQUATION  H-W
VARIABLE_STEP        0.75
LENGTHENING_STEP     5
MIN_SURFAREA         0
MAX_TRIALS           0
HEAD_TOLERANCE       0
SYS_FLOW_TOL         5
LAT_FLOW_TOL         5
MINIMUM_STEP         0.5
THREADS              1

[EVAPORATION]
;;Data Source    Parameters
;;-------------- ----------------
CONSTANT         0.000000
DRY_ONLY         NO

[RAINGAGES]
;;Name           Format    Interval SCF      Source    
;;-------------- --------- ------ ------ ----------
10YR_24HR        INTENSITY 1.000000 0.000000 TIMESERIES 10YR_24HR_SERIES
10YR_2HR_STORM   INTENSITY 0.083333 0.000000 TIMESERIES TS1             

[SUBCATCHMENTS]
;;Name           Rain Gage        Outlet           Area     %Imperv  Width    %Slope   CurbLen  SnowPack        
;;-------------- ---------------- ---------------- -------- -------- -------- -------- -------- ----------------
AR-1             10YR_2HR_STORM   NODE122          8.649770 30.000000 380.000000 0.100000 0.000000                 
AR-2             10YR_2HR_STORM   NODE122          12.673290 25.000000 500.000000 0.100000 0.000000                 
AR-3             10YR_2HR_STORM   J1               4.048280 15.000000 250.000000 0.100000 0.000000                 
AR-4             10YR_2HR_STORM   NODE122          1.056860 40.000000 230.000000 0.100000 0.000000                 
AR-5             10YR_2HR_STORM   NODE123          2.981060 20.000000 300.000000 0.100000 0.000000                 
AR-6             10YR_2HR_STORM   NODE104          0.799310 30.000000 170.000000 0.100000 0.000000                 
HYATT-1          10YR_2HR_STORM   NODE107          3.260000 90.000000 150.000000 0.100000 0.000000                 
HYATT-2          10YR_2HR_STORM   NODE110          2.211680 90.000000 150.000000 0.100000 0.000000                 
SUBCATCH-1       10YR_2HR_STORM   3                0.579760 85.000000 117.540800 0.100000 0.000000                 
SUBCATCH-10      10YR_2HR_STORM   7                0.292400 85.000000 58.480300 0.100000 0.000000                 
SUBCATCH-11      10YR_2HR_STORM   8                0.373340 85.000000 74.989800 0.100000 0.000000                 
SUBCATCH-12      10YR_2HR_STORM   NODE101          0.412280 85.000000 82.485900 0.100000 0.000000                 
SUBCATCH-13      10YR_2HR_STORM   62               0.606970 85.000000 123.762900 0.100000 0.000000                 
SUBCATCH-14      10YR_2HR_STORM   9                0.305700 85.000000 58.939400 0.100000 0.000000                 
SUBCATCH-15      10YR_2HR_STORM   10               0.469660 85.000000 97.410800 0.100000 0.000000                 
SUBCATCH-16      10YR_2HR_STORM   17               0.403950 85.000000 80.589800 0.100000 0.000000                 
SUBCATCH-17      10YR_2HR_STORM   12               0.511430 85.000000 103.887800 0.100000 0.000000                 
SUBCATCH-18      10YR_2HR_STORM   86               0.636120 85.000000 120.764100 0.100000 0.000000                 
SUBCATCH-19      10YR_2HR_STORM   20               0.351660 85.000000 72.652200 0.100000 0.000000                 
SUBCATCH-2       10YR_2HR_STORM   67               0.308380 85.000000 61.675400 0.100000 0.000000                 
SUBCATCH-20      10YR_2HR_STORM   23               0.172150 85.000000 35.798700 0.100000 0.000000                 
SUBCATCH-21      10YR_2HR_STORM   45               0.346480 85.000000 69.296200 0.100000 0.000000                 
SUBCATCH-22      10YR_2HR_STORM   47               0.511190 85.000000 99.519000 0.100000 0.000000                 
SUBCATCH-23      10YR_2HR_STORM   49               0.510140 85.000000 102.978300 0.100000 0.000000                 
SUBCATCH-24      10YR_2HR_STORM   NODE100          0.263370 85.000000 52.103800 0.100000 0.000000                 
SUBCATCH-25      10YR_2HR_STORM   52               0.397770 85.000000 74.106900 0.100000 0.000000                 
SUBCATCH-26      10YR_2HR_STORM   74               0.960360 85.000000 190.239200 0.100000 0.000000                 
SUBCATCH-27      10YR_2HR_STORM   72               0.593410 85.000000 116.548300 0.100000 0.000000                 
SUBCATCH-28      10YR_2HR_STORM   65               0.478340 85.000000 98.895000 0.100000 0.000000                 
SUBCATCH-29      10YR_2HR_STORM   64               0.417820 85.000000 83.654000 0.100000 0.000000                 
SUBCATCH-3       10YR_2HR_STORM   NODE94           0.424890 85.000000 85.764900 0.100000 0.000000                 
SUBCATCH-30      10YR_2HR_STORM   38               0.611130 85.000000 115.000000 0.100000 0.000000                 
SUBCATCH-31      10YR_2HR_STORM   33               0.558110 85.000000 106.439500 0.100000 0.000000                 
SUBCATCH-32      10YR_2HR_STORM   34               0.596800 85.000000 119.753900 0.100000 0.000000                 
SUBCATCH-33      10YR_2HR_STORM   23               0.201860 85.000000 39.522300 0.100000 0.000000                 
SUBCATCH-34      10YR_2HR_STORM   22               0.159120 85.000000 35.682900 0.100000 0.000000                 
SUBCATCH-35      10YR_2HR_STORM   60               0.419100 85.000000 85.465000 0.100000 0.000000                 
SUBCATCH-36      10YR_2HR_STORM   25               0.388980 85.000000 75.566800 0.100000 0.000000                 
SUBCATCH-37      10YR_2HR_STORM   32               0.442240 85.000000 92.240000 0.100000 0.000000                 
SUBCATCH-38      10YR_2HR_STORM   56               0.394120 85.000000 82.790700 0.100000 0.000000                 
SUBCATCH-39      10YR_2HR_STORM   57               0.453740 85.000000 85.757000 0.100000 0.000000                 
SUBCATCH-4       10YR_2HR_STORM   88               0.340990 85.000000 62.404600 0.100000 0.000000                 
SUBCATCH-40      10YR_2HR_STORM   69               0.438570 85.000000 86.680600 0.100000 0.000000                 
SUBCATCH-41      10YR_2HR_STORM   63               0.383210 85.000000 78.974700 0.100000 0.000000                 
SUBCATCH-42      10YR_2HR_STORM   64               0.377890 85.000000 78.249700 0.100000 0.000000                 
SUBCATCH-43      10YR_2HR_STORM   NODE103          0.412730 85.000000 83.143400 0.100000 0.000000                 
SUBCATCH-44      10YR_2HR_STORM   42               0.357810 85.000000 72.627600 0.100000 0.000000                 
SUBCATCH-45      10YR_2HR_STORM   43               0.111130 85.000000 19.145200 0.100000 0.000000                 
SUBCATCH-46      10YR_2HR_STORM   59               0.601940 85.000000 124.078200 0.100000 0.000000                 
SUBCATCH-47      10YR_2HR_STORM   44               0.066580 85.000000 12.212700 0.100000 0.000000                 
SUBCATCH-48      10YR_2HR_STORM   32               1.627260 85.000000 200.000000 0.100000 0.000000                 
SUBCATCH-49      10YR_2HR_STORM   55               8.424860 80.000000 350.000000 0.100000 0.000000                 
SUBCATCH-5       10YR_2HR_STORM   29               0.314040 85.000000 63.231100 0.100000 0.000000                 
SUBCATCH-50      10YR_2HR_STORM   54               5.485700 85.000000 300.000000 0.100000 0.000000                 
SUBCATCH-51      10YR_2HR_STORM   53               41.516160 85.000000 900.000000 0.100000 0.000000                 
SUBCATCH-52      10YR_2HR_STORM   NODE116          0.973790 85.000000 194.756400 0.100000 0.000000                 
SUBCATCH-53      10YR_2HR_STORM   NODE117          0.646030 85.000000 129.306900 0.100000 0.000000                 
SUBCATCH-54      10YR_2HR_STORM   NODE119          0.846110 85.000000 169.262700 0.100000 0.000000                 
SUBCATCH-55      10YR_2HR_STORM   NODE102          0.439950 85.000000 88.226100 0.100000 0.000000                 
SUBCATCH-56      10YR_2HR_STORM   27               0.471470 85.000000 90.126200 0.100000 0.000000                 
SUBCATCH-57      10YR_2HR_STORM   25               0.372320 85.000000 74.290200 0.100000 0.000000                 
SUBCATCH-58      10YR_2HR_STORM   15               0.553970 85.000000 111.911800 0.100000 0.000000                 
SUBCATCH-6       10YR_2HR_STORM   NODE88           0.368670 85.000000 72.262400 0.100000 0.000000                 
SUBCATCH-7       10YR_2HR_STORM   16               1.131090 85.000000 221.723200 0.100000 0.000000                 
SUBCATCH-8       10YR_2HR_STORM   51               0.733050 85.000000 151.995900 0.100000 0.000000                 
SUBCATCH-9       10YR_2HR_STORM   6                0.256740 85.000000 48.858500 0.100000 0.000000                 

[SUBAREAS]
;;Subcatchment   N-Imperv   N-Perv     S-Imperv   S-Perv     PctZero    RouteTo    PctRouted 
;;-------------- ---------- ---------- ---------- ---------- ---------- ---------- ----------
AR-1             0.015000   0.200000   0.500000   5.000000   50.000000  OUTLET    
AR-2             0.015000   0.200000   0.500000   5.000000   50.000000  OUTLET    
AR-3             0.015000   0.200000   0.500000   5.000000   50.000000  OUTLET    
AR-4             0.015000   0.200000   0.500000   5.000000   50.000000  OUTLET    
AR-5             0.015000   0.200000   0.500000   5.000000   50.000000  OUTLET    
AR-6             0.015000   0.200000   0.500000   5.000000   50.000000  OUTLET    
HYATT-1          0.015000   0.200000   0.500000   5.000000   50.000000  OUTLET    
HYATT-2          0.015000   0.200000   0.500000   5.000000   50.000000  OUTLET    
SUBCATCH-1       0.015000   0.200000   0.500000   5.000000   50.000000  OUTLET    
SUBCATCH-10      0.015000   0.200000   0.500000   5.000000   50.000000  OUTLET    
SUBCATCH-11      0.015000   0.200000   0.500000   5.000000   50.000000  OUTLET    
SUBCATCH-12      0.015000   0.200000   0.500000   5.000000   50.000000  OUTLET    
SUBCATCH-13      0.015000   0.200000   0.500000   5.000000   50.000000  OUTLET    
SUBCATCH-14      0.015000   0.200000   0.500000   5.000000   50.000000  OUTLET    
SUBCATCH-15      0.015000   0.200000   0.500000   5.000000   50.000000  OUTLET    
SUBCATCH-16      0.015000   0.200000   0.500000   5.000000   50.000000  OUTLET    
SUBCATCH-17      0.015000   0.200000   0.500000   5.000000   50.000000  OUTLET    
SUBCATCH-18      0.015000   0.200000   0.500000   5.000000   50.000000  OUTLET    
SUBCATCH-19      0.015000   0.200000   0.500000   5.000000   50.000000  OUTLET    
SUBCATCH-2       0.015000   0.200000   0.500000   5.000000   50.000000  OUTLET    
SUBCATCH-20      0.015000   0.200000   0.500000   5.000000   50.000000  OUTLET    
SUBCATCH-21      0.015000   0.200000   0.500000   5.000000   50.000000  OUTLET    
SUBCATCH-22      0.015000   0.200000   0.500000   5.000000   50.000000  OUTLET    
SUBCATCH-23      0.015000   0.200000   0.500000   5.000000   50.000000  OUTLET    
SUBCATCH-24      0.015000   0.200000   0.500000   5.000000   50.000000  OUTLET    
SUBCATCH-25      0.015000   0.200000   0.500000   5.000000   50.000000  OUTLET    
SUBCATCH-26      0.015000   0.200000   0.500000   5.000000   50.000000  OUTLET    
SUBCATCH-27      0.015000   0.200000   0.500000   5.000000   50.000000  OUTLET    
SUBCATCH-28      0.015000   0.200000   0.500000   5.000000   50.000000  OUTLET    
SUBCATCH-29      0.015000   0.200000   0.500000   5.000000   50.000000  OUTLET    
SUBCATCH-3       0.015000   0.200000   0.500000   5.000000   50.000000  OUTLET    
SUBCATCH-30      0.015000   0.200000   0.500000   5.000000   50.000000  OUTLET    
SUBCATCH-31      0.015000   0.200000   0.500000   5.000000   50.000000  OUTLET    
SUBCATCH-32      0.015000   0.200000   0.500000   5.000000   50.000000  OUTLET    
SUBCATCH-33      0.015000   0.200000   0.500000   5.000000   50.000000  OUTLET    
SUBCATCH-34      0.015000   0.200000   0.500000   5.000000   50.000000  OUTLET    
SUBCATCH-35      0.015000   0.200000   0.500000   5.000000   50.000000  OUTLET    
SUBCATCH-36      0.015000   0.200000   0.500000   5.000000   50.000000  OUTLET    
SUBCATCH-37      0.015000   0.200000   0.500000   5.000000   50.000000  OUTLET    
SUBCATCH-38      0.015000   0.200000   0.500000   5.000000   50.000000  OUTLET    
SUBCATCH-39      0.015000   0.200000   0.500000   5.000000   50.000000  OUTLET    
SUBCATCH-4       0.015000   0.200000   0.500000   5.000000   50.000000  OUTLET    
SUBCATCH-40      0.015000   0.200000   0.500000   5.000000   50.000000  OUTLET    
SUBCATCH-41      0.015000   0.200000   0.500000   5.000000   50.000000  OUTLET    
SUBCATCH-42      0.015000   0.200000   0.500000   5.000000   50.000000  OUTLET    
SUBCATCH-43      0.015000   0.200000   0.500000   5.000000   50.000000  OUTLET    
SUBCATCH-44      0.015000   0.200000   0.500000   5.000000   50.000000  OUTLET    
SUBCATCH-45      0.015000   0.200000   0.500000   5.000000   50.000000  OUTLET    
SUBCATCH-46      0.015000   0.200000   0.500000   5.000000   50.000000  OUTLET    
SUBCATCH-47      0.015000   0.200000   0.500000   5.000000   50.000000  OUTLET    
SUBCATCH-48      0.015000   0.200000   0.500000   5.000000   50.000000  OUTLET    
SUBCATCH-49      0.015000   0.200000   0.500000   5.000000   50.000000  OUTLET    
SUBCATCH-5       0.015000   0.200000   0.500000   5.000000   50.000000  OUTLET    
SUBCATCH-50      0.015000   0.200000   0.500000   5.000000   50.000000  OUTLET    
SUBCATCH-51      0.015000   0.200000   0.500000   5.000000   50.000000  OUTLET    
SUBCATCH-52      0.015000   0.200000   0.500000   5.000000   50.000000  OUTLET    
SUBCATCH-53      0.015000   0.200000   0.500000   5.000000   50.000000  OUTLET    
SUBCATCH-54      0.015000   0.200000   0.500000   5.000000   50.000000  OUTLET    
SUBCATCH-55      0.015000   0.200000   0.500000   5.000000   50.000000  OUTLET    
SUBCATCH-56      0.015000   0.200000   0.500000   5.000000   50.000000  OUTLET    
SUBCATCH-57      0.015000   0.200000   0.500000   5.000000   50.000000  OUTLET    
SUBCATCH-58      0.015000   0.200000   0.500000   5.000000   50.000000  OUTLET    
SUBCATCH-6       0.015000   0.200000   0.500000   5.000000   50.000000  OUTLET    
SUBCATCH-7       0.015000   0.200000   0.500000   5.000000   50.000000  OUTLET    
SUBCATCH-8       0.015000   0.200000   0.500000   5.000000   50.000000  OUTLET    
SUBCATCH-9       0.015000   0.200000   0.500000   5.000000   50.000000  OUTLET    

[INFILTRATION]
;;Subcatchment   MaxRate    MinRate    Decay      DryTime    MaxInfil  
;;-------------- ---------- ---------- ---------- ---------- ----------
AR-1             20.000000  1.000000   0.100000   0.100000   0.000000  
AR-2             20.000000  1.000000   0.100000   0.100000   0.000000  
AR-3             20.000000  1.000000   0.100000   0.100000   0.000000  
AR-4             20.000000  1.000000   0.100000   0.100000   0.000000  
AR-5             20.000000  1.000000   0.100000   0.100000   0.000000  
AR-6             20.000000  1.000000   0.100000   0.100000   0.000000  
HYATT-1          20.000000  1.000000   0.100000   0.100000   0.000000  
HYATT-2          20.000000  1.000000   0.100000   0.100000   0.000000  
SUBCATCH-1       20.000000  1.000000   0.100000   0.100000   0.000000  
SUBCATCH-10      20.000000  1.000000   0.100000   0.100000   0.000000  
SUBCATCH-11      20.000000  1.000000   0.100000   0.100000   0.000000  
SUBCATCH-12      20.000000  1.000000   0.100000   0.100000   0.000000  
SUBCATCH-13      20.000000  1.000000   0.100000   0.100000   0.000000  
SUBCATCH-14      20.000000  1.000000   0.100000   0.100000   0.000000  
SUBCATCH-15      20.000000  1.000000   0.100000   0.100000   0.000000  
SUBCATCH-16      20.000000  1.000000   0.100000   0.100000   0.000000  
SUBCATCH-17      20.000000  1.000000   0.100000   0.100000   0.000000  
SUBCATCH-18      20.000000  1.000000   0.100000   0.100000   0.000000  
SUBCATCH-19      20.000000  1.000000   0.100000   0.100000   0.000000  
SUBCATCH-2       20.000000  1.000000   0.100000   0.100000   0.000000  
SUBCATCH-20      20.000000  1.000000   0.100000   0.100000   0.000000  
SUBCATCH-21      20.000000  1.000000   0.100000   0.100000   0.000000  
SUBCATCH-22      20.000000  1.000000   0.100000   0.100000   0.000000  
SUBCATCH-23      20.000000  1.000000   0.100000   0.100000   0.000000  
SUBCATCH-24      20.000000  1.000000   0.100000   0.100000   0.000000  
SUBCATCH-25      20.000000  1.000000   0.100000   0.100000   0.000000  
SUBCATCH-26      20.000000  1.000000   0.100000   0.100000   0.000000  
SUBCATCH-27      20.000000  1.000000   0.100000   0.100000   0.000000  
SUBCATCH-28      20.000000  1.000000   0.100000   0.100000   0.000000  
SUBCATCH-29      20.000000  1.000000   0.100000   0.100000   0.000000  
SUBCATCH-3       20.000000  1.000000   0.100000   0.100000   0.000000  
SUBCATCH-30      20.000000  1.000000   0.100000   0.100000   0.000000  
SUBCATCH-31      20.000000  1.000000   0.100000   0.100000   0.000000  
SUBCATCH-32      20.000000  1.000000   0.100000   0.100000   0.000000  
SUBCATCH-33      20.000000  1.000000   0.100000   0.100000   0.000000  
SUBCATCH-34      20.000000  1.000000   0.100000   0.100000   0.000000  
SUBCATCH-35      20.000000  1.000000   0.100000   0.100000   0.000000  
SUBCATCH-36      20.000000  1.000000   0.100000   0.100000   0.000000  
SUBCATCH-37      20.000000  1.000000   0.100000   0.100000   0.000000  
SUBCATCH-38      20.000000  1.000000   0.100000   0.100000   0.000000  
SUBCATCH-39      20.000000  1.000000   0.100000   0.100000   0.000000  
SUBCATCH-4       20.000000  1.000000   0.100000   0.100000   0.000000  
SUBCATCH-40      20.000000  1.000000   0.100000   0.100000   0.000000  
SUBCATCH-41      20.000000  1.000000   0.100000   0.100000   0.000000  
SUBCATCH-42      20.000000  1.000000   0.100000   0.100000   0.000000  
SUBCATCH-43      20.000000  1.000000   0.100000   0.100000   0.000000  
SUBCATCH-44      20.000000  1.000000   0.100000   0.100000   0.000000  
SUBCATCH-45      20.000000  1.000000   0.100000   0.100000   0.000000  
SUBCATCH-46      20.000000  1.000000   0.100000   0.100000   0.000000  
SUBCATCH-47      20.000000  1.000000   0.100000   0.100000   0.000000  
SUBCATCH-48      20.000000  1.000000   0.100000   0.100000   0.000000  
SUBCATCH-49      20.000000  1.000000   0.100000   0.100000   0.000000  
SUBCATCH-5       20.000000  1.000000   0.100000   0.100000   0.000000  
SUBCATCH-50      20.000000  1.000000   0.100000   0.100000   0.000000  
SUBCATCH-51      20.000000  1.000000   0.100000   0.100000   0.000000  
SUBCATCH-52      20.000000  1.000000   0.100000   0.100000   0.000000  
SUBCATCH-53      20.000000  1.000000   0.100000   0.100000   0.000000  
SUBCATCH-54      20.000000  1.000000   0.100000   0.100000   0.000000  
SUBCATCH-55      20.000000  1.000000   0.100000   0.100000   0.000000  
SUBCATCH-56      20.000000  1.000000   0.100000   0.100000   0.000000  
SUBCATCH-57      20.000000  1.000000   0.100000   0.100000   0.000000  
SUBCATCH-58      20.000000  1.000000   0.100000   0.100000   0.000000  
SUBCATCH-6       20.000000  1.000000   0.100000   0.100000   0.000000  
SUBCATCH-7       20.000000  1.000000   0.100000   0.100000   0.000000  
SUBCATCH-8       20.000000  1.000000   0.100000   0.100000   0.000000  
SUBCATCH-9       20.000000  1.000000   0.100000   0.100000   0.000000  

[JUNCTIONS]
;;Name           Elevation  MaxDepth   InitDepth  SurDepth   Aponded   
;;-------------- ---------- ---------- ---------- ---------- ----------
1                -0.448000  1.963000   0.000000   0.000000   0.000000  
10               -0.590000  2.384000   0.000000   0.000000   0.000000  
12               -0.688000  2.879000   0.000000   0.000000   0.000000  
13               -0.713000  2.982000   0.000000   0.000000   0.000000  
14               -0.539000  2.170000   0.000000   0.000000   0.000000  
15               -0.476000  2.225000   0.000000   0.000000   0.000000  
16               -0.426000  2.113000   0.000000   0.000000   0.000000  
17               -0.633000  2.286000   0.000000   0.000000   0.000000  
18               -0.662000  2.983000   0.000000   0.000000   0.000000  
19               -0.791000  2.691000   0.000000   0.000000   0.000000  
2                -0.415000  1.920000   0.000000   0.000000   0.000000  
20               -0.623000  2.584000   0.000000   0.000000   0.000000  
21               -0.666000  2.844000   0.000000   0.000000   0.000000  
22               -0.571000  2.227000   0.000000   0.000000   0.000000  
23               -0.602000  2.435000   0.000000   0.000000   0.000000  
24               -0.544000  2.246000   0.000000   0.000000   0.000000  
25               -0.510000  2.329000   0.000000   0.000000   0.000000  
27               -0.471000  1.901000   0.000000   0.000000   0.000000  
29               -0.455000  2.187000   0.000000   0.000000   0.000000  
3                -0.385000  2.006000   0.000000   0.000000   0.000000  
30               -0.486000  2.547000   0.000000   0.000000   0.000000  
31               -0.426000  2.364000   0.000000   0.000000   0.000000  
32               -0.350000  2.027000   0.000000   0.000000   0.000000  
33               -0.538000  2.361000   0.000000   0.000000   0.000000  
34               -0.575000  2.479000   0.000000   0.000000   0.000000  
35               -0.487000  1.983000   0.000000   0.000000   0.000000  
38               -0.490000  2.182000   0.000000   0.000000   0.000000  
39               -0.351000  2.820000   0.000000   0.000000   0.000000  
4                -0.386000  1.844000   0.000000   0.000000   0.000000  
40               -0.279000  2.274000   0.000000   0.000000   0.000000  
41               -0.179000  2.002000   0.000000   0.000000   0.000000  
42               -0.271000  1.985000   0.000000   0.000000   0.000000  
43               -0.241000  2.019000   0.000000   0.000000   0.000000  
44               -0.205000  2.064000   0.000000   0.000000   0.000000  
45               -0.251000  1.509000   0.000000   0.000000   0.000000  
46               -0.283000  1.877000   0.000000   0.000000   0.000000  
47               -0.328000  2.031000   0.000000   0.000000   0.000000  
48               -0.353000  1.999000   0.000000   0.000000   0.000000  
49               -0.390000  1.832000   0.000000   0.000000   0.000000  
51               -0.455000  1.939000   0.000000   0.000000   0.000000  
52               -0.415000  2.055000   0.000000   0.000000   0.000000  
53               -0.212000  1.929000   0.000000   0.000000   0.000000  
54               -0.297000  2.634000   0.000000   0.000000   0.000000  
55               -0.068000  1.577000   0.000000   0.000000   0.000000  
56               -0.427000  1.915000   0.000000   0.000000   0.000000  
57               -0.412000  1.983000   0.000000   0.000000   0.000000  
58               -0.392000  1.842000   0.000000   0.000000   0.000000  
59               -0.350000  1.820000   0.000000   0.000000   0.000000  
6                -0.489000  2.110000   0.000000   0.000000   0.000000  
60               -0.322000  1.703000   0.000000   0.000000   0.000000  
62               -0.438000  1.966000   0.000000   0.000000   0.000000  
63               -0.326000  1.727000   0.000000   0.000000   0.000000  
64               -0.299000  1.784000   0.000000   0.000000   0.000000  
65               -0.297000  1.661000   0.000000   0.000000   0.000000  
67               -0.335000  1.740000   0.000000   0.000000   0.000000  
69               -0.381000  1.838000   0.000000   0.000000   0.000000  
7                -0.508000  2.091000   0.000000   0.000000   0.000000  
70               -0.356000  1.735000   0.000000   0.000000   0.000000  
72               -0.269000  1.706000   0.000000   0.000000   0.000000  
73               -0.235000  1.789000   0.000000   0.000000   0.000000  
74               -0.208000  1.632000   0.000000   0.000000   0.000000  
8                -0.530000  1.953000   0.000000   0.000000   0.000000  
84               -0.194000  2.066000   0.000000   0.000000   0.000000  
86               -0.534000  2.262000   0.000000   0.000000   0.000000  
88               -0.422000  2.070000   0.000000   0.000000   0.000000  
89               -0.255000  2.044000   0.000000   0.000000   0.000000  
9                -0.564000  2.422000   0.000000   0.000000   0.000000  
J1               0.370000   1.972000   0.000000   0.000000   0.000000  
J2               0.130000   1.310000   0.000000   0.000000   0.000000  
J3               0.090000   1.614000   0.000000   0.000000   0.000000  
J4               0.080000   2.194000   0.000000   0.000000   0.000000  
NODE100          -0.311000  1.718000   0.000000   0.000000   0.000000  
NODE101          -0.362000  1.768000   0.000000   0.000000   0.000000  
NODE102          -0.438000  2.193000   0.000000   0.000000   0.000000  
NODE103          -0.302000  1.900000   0.000000   0.000000   0.000000  
NODE104          0.060000   2.194000   0.000000   0.000000   0.000000  
NODE105          -0.100000  2.590000   0.000000   0.000000   0.000000  
NODE106          -0.130000  2.500000   0.000000   0.000000   0.000000  
NODE107          -0.070000  1.900000   0.000000   0.000000   0.000000  
NODE108          -0.180000  1.850000   0.000000   0.000000   0.000000  
NODE109          0.090000   1.700000   0.000000   0.000000   0.000000  
NODE110          0.180000   2.100000   0.000000   0.000000   0.000000  
NODE111          -0.817000  2.323000   0.000000   0.000000   0.000000  
NODE113          -0.840000  2.921000   0.000000   0.000000   0.000000  
NODE115          0.320000   0.929000   0.000000   0.000000   0.000000  
NODE116          0.300000   0.996000   0.000000   0.000000   0.000000  
NODE117          0.270000   0.933000   0.000000   0.000000   0.000000  
NODE118          0.180000   1.693000   0.000000   0.000000   0.000000  
NODE119          0.140000   2.076000   0.000000   0.000000   0.000000  
NODE122          0.151000   1.099000   0.000000   0.000000   0.000000  
NODE123          0.006000   0.909000   0.000000   0.000000   0.000000  
NODE124          -0.123000  2.157000   0.000000   0.000000   0.000000  
NODE87           -0.232000  1.995000   0.000000   0.000000   0.000000  
NODE88           -0.630000  2.273000   0.000000   0.000000   0.000000  
NODE92           -0.279000  1.616000   0.000000   0.000000   0.000000  
NODE94           -0.365000  1.960000   0.000000   0.000000   0.000000  
NODE95           -0.395000  1.841000   0.000000   0.000000   0.000000  
NODE96           -0.400000  2.079000   0.000000   0.000000   0.000000  
NODE97           -0.189000  1.957000   0.000000   0.000000   0.000000  
NODE99           -0.277000  1.681000   0.000000   0.000000   0.000000  

[OUTFALLS]
;;Name           Elevation  Type       Stage Data       Gated    Route To        
;;-------------- ---------- ---------- ---------------- -------- ----------------
NODE114          -0.850000  FREE                        NO                       
NODE120          0.280000   FREE                        NO                       

[CONDUITS]
;;Name           From Node        To Node          Length     Roughness  InOffset   OutOffset  InitFlow   MaxFlow   
;;-------------- ---------------- ---------------- ---------- ---------- ---------- ---------- ---------- ----------
10.1             10               17               84.150000  0.013000   0.000000   0.000000   0.000000   0.000000  
11               17               18               55.900000  0.013000   0.000000   0.000000   0.000000   0.000000  
12.1             18               12               50.090000  0.013000   0.000000   0.000000   0.000000   0.000000  
13.1             12               13               50.360000  0.013000   0.000000   0.000000   0.000000   0.000000  
14.1             6                7                36.910000  0.013000   0.000000   0.000000   0.000000   0.000000  
15.1             7                8                43.860000  0.013000   0.000000   0.000000   0.000000   0.000000  
16.1             8                9                67.200000  0.013000   0.000000   0.000000   0.000000   0.000000  
17.1             13               19               153.000000 0.013000   0.000000   0.000000   0.000000   0.000000  
18.1             24               22               53.000000  0.013000   0.000000   0.000000   0.000000   0.000000  
19.1             22               23               62.200000  0.013000   0.000000   0.000000   0.000000   0.000000  
2.1              3                2                58.000000  0.013000   0.000000   0.000000   0.000000   0.000000  
20.1             23               20               41.000000  0.013000   0.000000   0.000000   0.000000   0.000000  
21.1             20               21               84.000000  0.030000   0.000000   0.000000   0.000000   0.000000  
22.1             21               13               93.000000  0.030000   0.000000   0.000000   0.000000   0.000000  
23.1             25               24               67.000000  0.013000   0.000000   0.000000   0.000000   0.000000  
24.1             27               25               75.000000  0.013000   0.000000   0.000000   0.000000   0.000000  
25.1             NODE102          27               64.030000  0.013000   0.000000   0.000000   0.000000   0.000000  
26.1             88               29               60.000000  0.013000   0.000000   0.000000   0.000000   0.000000  
27.1             29               15               41.180000  0.013000   0.000000   0.000000   0.000000   0.000000  