[TITLE]
;;Project Title/Notes
Scenario Run :  BASE

[OPTIONS]
;;Option             Value
FLOW_UNITS           MGD
INFILTRATION         HORTON
FLOW_ROUTING         DYNWAVE
LINK_OFFSETS         DEPTH
MIN_SLOPE            0
ALLOW_PONDING        NO
SKIP_STEADY_STATE    NO

START_DATE           01/01/2007
START_TIME           00:00:00
REPORT_START_DATE    01/01/2007
REPORT_START_TIME    00:00:00
END_DATE             01/04/2007
END_TIME             23:00:00
SWEEP_START          01/01
SWEEP_END            12/31
DRY_DAYS             5.000000
REPORT_STEP          00:05:00
WET_STEP             00:05:00
DRY_STEP             00:05:00
ROUTING_STEP         0:00:30 

INERTIAL_DAMPING     NONE
NORMAL_FLOW_LIMITED  BOTH
FORCE_MAIN_EQUATION  H-W
VARIABLE_STEP        0.76
LENGTHENING_STEP     20
MIN_SURFAREA         12.557
MAX_TRIALS           8
HEAD_TOLERANCE       0.001
SYS_FLOW_TOL         5
LAT_FLOW_TOL         5
MINIMUM_STEP         0
THREADS              1

[FILES]
;;Interfacing Files
SAVE HOTSTART "C:\ProgramData\Innovyze\Temp\IM1Vdb\HMVDB31\12.19.06_E.hsf"

[EVAPORATION]
;;Data Source    Parameters
;;-------------- ----------------
CONSTANT         0.000000
DRY_ONLY         NO

[RAINGAGES]
;;Name           Format    Interval SCF      Source    
;;-------------- --------- ------ ------ ----------
;  131ST Ave.
RAINGAGE-1       VOLUME    0.083333 1.000000 TIMESERIES RAINGAGE-1      
;  13TH ST
RAINGAGE-2       VOLUME    0.083333 1.000000 TIMESERIES RAINGAGE-2      
;  25TH ST
RAINGAGE-4       VOLUME    0.083333 1.000000 TIMESERIES RAINGAGE-4      
;  San Carlos
RAINGAGE-6       VOLUME    0.083333 1.000000 TIMESERIES RAINGAGE-6      

[SUBCATCHMENTS]
;;Name           Rain Gage        Outlet           Area     %Imperv  Width    %Slope   CurbLen  SnowPack        
;;-------------- ---------------- ---------------- -------- -------- -------- -------- -------- ----------------
;  Krause
SUB-100E-AC      RAINGAGE-4       163A-191         40.272940 5.000000 265.230381 0.741500 0.000000                 
;  Krause
SUB-100E-AD      RAINGAGE-4       372A-062         38.718590 5.000000 292.669849 0.421500 0.000000                 
;  Krause
SUB-100E-AE      RAINGAGE-4       372A-142         30.818596 5.000000 420.839656 0.581100 0.000000                 
;  Krause
SUB-100E-AF      RAINGAGE-4       372A-181         50.474868 5.000000 1000.741270 0.510200 0.000000                 
;  Krause
SUB-100E-AG      RAINGAGE-4       372A-051         18.233714 5.000000 301.030013 1.078400 0.000000                 
;  Krause
SUB-100E-AH      RAINGAGE-4       372A-056         29.188843 5.000000 374.284615 0.231500 0.000000                 
SUB-100E-AI      RAINGAGE-4       372A-007         31.884197 5.000000 1465.000000 0.587000 0.000000                 
;  Krause
SUB-100E-AJ      RAINGAGE-4       372A-007         8.698414 5.000000 153.228867 0.722300 0.000000                 
;  Krause
SUB-100E-AK      RAINGAGE-4       372A-026         7.167184 5.000000 99.158169 0.282600 0.000000                 
;  Krause
SUB-100E-AL      RAINGAGE-4       163A-002         24.815520 5.000000 463.660232 1.079700 0.000000                 
;  Krause
SUB-100E-AM      RAINGAGE-4       359A-104         77.222951 5.000000 2540.000000 0.069000 0.000000                 
;  Krause
SUB-100E-AN      RAINGAGE-4       360A-126         11.617109 5.000000 1265.000000 0.645000 0.000000                 
;  Krause
SUB-100E-AO      RAINGAGE-4       163A-048         43.033858 5.000000 2275.000000 0.967000 0.000000                 
;  Krause
SUB-100E-B       RAINGAGE-4       360A-124         19.438840 5.000000 382.418345 0.702900 0.000000                 
;  Krause
SUB-100E-C       RAINGAGE-4       360A-137         23.475987 5.000000 620.318950 0.607500 0.000000                 
;  Krause
SUB-100E-D       RAINGAGE-4       360A-080         31.203320 5.000000 833.174906 0.443000 0.000000                 
;  Krause
SUB-100E-E       RAINGAGE-4       360A-032         57.546684 5.000000 337.451366 0.824500 0.000000                 
;  Krause
SUB-100E-F       RAINGAGE-4       360A-004         43.315435 5.000000 256.616390 0.693900 0.000000                 
;  Krause
SUB-100E-G       RAINGAGE-4       359A-008         125.144988 5.000000 966.093186 0.790900 0.000000                 
;  Krause
SUB-100E-H       RAINGAGE-4       367A-047         36.979281 5.000000 183.887489 0.604200 0.000000                 
;  Krause
SUB-100E-I       RAINGAGE-4       367A-005         90.852997 5.000000 447.045570 0.873000 0.000000                 
;  Krause
SUB-100E-J       RAINGAGE-4       366A-020         93.563281 5.000000 558.754380 0.706300 0.000000                 
;  Krause
SUB-100E-K       RAINGAGE-4       366A-007         65.636876 5.000000 529.062851 1.649800 0.000000                 
;  Krause
SUB-100E-L       RAINGAGE-4       366A-005         70.522066 5.000000 326.164823 0.966500 0.000000                 
;  Krause
SUB-100E-M       RAINGAGE-4       366A-004         8.376213 5.000000 166.609944 1.357300 0.000000                 
;  Krause
SUB-100E-N       RAINGAGE-4       163A-078         33.120630 5.000000 526.838467 2.276700 0.000000                 
;  Krause
SUB-100E-O       RAINGAGE-4       163A-184         7.061439 5.000000 373.176726 0.313200 0.000000                 
;  Krause
SUB-100E-P       RAINGAGE-4       374A-061         51.533241 5.000000 255.260398 0.750100 0.000000                 
;  Krause
SUB-100E-Q       RAINGAGE-4       374A-061         94.160900 5.000000 439.693660 0.929300 0.000000                 
;  Krause
SUB-100E-R       RAINGAGE-4       163A-036         15.742710 5.000000 444.883389 0.734900 0.000000                 
;  Krause
SUB-100E-S       RAINGAGE-4       374A-060         8.324843 5.000000 296.202979 0.222600 0.000000                 
;  Krause
SUB-100E-T       RAINGAGE-4       163A-174         9.034220 5.000000 326.010987 0.216100 0.000000                 
;  Krause
SUB-100E-U       RAINGAGE-4       163A-166         10.376183 5.000000 441.278936 0.544900 0.000000                 
;  Krause
SUB-100E-V       RAINGAGE-4       163A-131         26.785712 5.000000 251.159952 0.553700 0.000000                 
;  Krause
SUB-100E-W       RAINGAGE-4       163A-026         8.158282 5.000000 92.582504 0.605100 0.000000                 
;  Krause
SUB-100E-X       RAINGAGE-4       163A-099         31.904678 5.000000 748.944661 0.715400 0.000000                 
;  Krause
SUB-100E-Y       RAINGAGE-4       375A-011         43.094798 5.000000 422.939872 0.509300 0.000000                 
;  Krause
SUB-100E-Z       RAINGAGE-4       374A-030         41.040521 5.000000 322.782761 0.177100 0.000000                 
;  Krause
SUB-100W-A       RAINGAGE-6       387A-109         90.448953 5.000000 1429.781500 0.236900 0.000000                 
;  Krause
SUB-100W-AA      RAINGAGE-6       369A-218         64.644742 5.000000 423.276277 0.587900 0.000000                 
;  Krause
SUB-100W-AB      RAINGAGE-6       369A-180         51.027401 5.000000 625.135344 0.771200 0.000000                 
;  Krause
SUB-100W-AC      RAINGAGE-6       369A-209         49.288481 5.000000 306.222107 0.175100 0.000000                 
;  Krause
SUB-100W-AD      RAINGAGE-6       365A-034         71.723660 5.000000 1176.473134 0.373400 0.000000                 
;  Krause
SUB-100W-AE      RAINGAGE-6       365A-083         105.828921 5.000000 939.998659 0.312600 0.000000                 
;  Krause
SUB-100W-AF      RAINGAGE-6       369A-119         99.682773 5.000000 874.956266 0.583400 0.000000                 
;  Krause
SUB-100W-AG      RAINGAGE-6       369A-050         106.333986 5.000000 746.580574 0.531000 0.000000                 
;  Krause
SUB-100W-AH      RAINGAGE-6       369A-023         39.855351 5.000000 635.614775 0.473200 0.000000                 
;  Krause
SUB-100W-AI      RAINGAGE-6       394A-073         138.071622 5.000000 1325.202116 0.179100 0.000000                 
;  Krause
SUB-100W-AJ      RAINGAGE-6       368A-086         80.962377 5.000000 540.209683 0.603600 0.000000                 
;  Krause
SUB-100W-AK      RAINGAGE-4       370A-105         121.496784 5.000000 2397.889882 0.957300 0.000000                 
;  Krause
SUB-100W-AL      RAINGAGE-4       362A-007         92.832096 5.000000 1184.391605 0.511900 0.000000                 
;  Krause
SUB-100W-AM      RAINGAGE-4       362A-002         92.378194 5.000000 893.394338 0.960000 0.000000                 
;  Krause
SUB-100W-AN      RAINGAGE-4       362A-032         110.070373 5.000000 823.638736 0.309600 0.000000                 
;  Krause
SUB-100W-AO      RAINGAGE-4       366A-180         123.371374 5.000000 1260.704335 0.947200 0.000000                 
;  Krause
SUB-100W-AP      RAINGAGE-6       365A-162         54.118147 5.000000 512.011922 0.588100 0.000000                 
;  Krause
SUB-100W-AQ      RAINGAGE-4       316A-118         82.305968 5.000000 762.143490 1.019900 0.000000                 
;  Krause
SUB-100W-AR      RAINGAGE-4       316A-101         14.436174 5.000000 318.756094 1.548300 0.000000                 
;  Krause
SUB-100W-AS      RAINGAGE-4       366A-271         48.875216 5.000000 678.355369 2.087700 0.000000                 
;  Krause
SUB-100W-AT      RAINGAGE-4       370A-216         97.432396 5.000000 971.236166 0.390500 0.000000                 
;  Krause
SUB-100W-AU      RAINGAGE-4       370A-001         33.415309 5.000000 418.279421 0.424800 0.000000                 
;  Krause
SUB-100W-AV      RAINGAGE-4       394A-021         77.424369 5.000000 786.703997 0.413500 0.000000                 
;  Krause
SUB-100W-AW      RAINGAGE-6       394A-086         59.689304 5.000000 743.500959 0.420700 0.000000                 
;  Krause
SUB-100W-AX      RAINGAGE-4       394A-086         74.908306 5.000000 818.410084 0.199600 0.000000                 
;  Krause
SUB-100W-AY      RAINGAGE-4       368A-086         92.075707 5.000000 812.156741 0.454000 0.000000                 
;  Krause
SUB-100W-AZ      RAINGAGE-6       369A-002         42.639072 5.000000 508.080662 0.368100 0.000000                 
;  Krause
SUB-100W-B       RAINGAGE-6       387A-058         56.543174 5.000000 786.562860 0.271100 0.000000                 
;  Krause
SUB-100W-BA      RAINGAGE-4       316A-004         11.760380 5.000000 446.033638 3.177600 0.000000                 
;  Krause
SUB-100W-BB      RAINGAGE-4       316A-018         81.334130 5.000000 768.316143 1.664700 0.000000                 
;  Krause
SUB-100W-BC      RAINGAGE-6       371A-144         30.532100 5.000000 58.143645 0.366800 0.000000                 
;  Krause
SUB-100W-BD      RAINGAGE-4       370A-086         42.143194 5.000000 807.710006 0.571700 0.000000                 
;  Krause
SUB-100W-BE      RAINGAGE-6       363A-019         31.103237 5.000000 484.386535 0.164300 0.000000                 
;  Krause
SUB-100W-BF      RAINGAGE-6       365A-083         26.555353 5.000000 857.787812 0.061600 0.000000                 
;  Krause
SUB-100W-BG      RAINGAGE-6       395A-004         51.350319 5.000000 654.103128 0.180100 0.000000                 
;  Krause
SUB-100W-C       RAINGAGE-6       387A-003         69.030046 5.000000 1271.762599 1.188000 0.000000                 
;  Krause
SUB-100W-D       RAINGAGE-6       371A-236         34.533635 5.000000 97.307870 0.354800 0.000000                 
;  Krause
SUB-100W-E       RAINGAGE-6       387A-004         46.438448 5.000000 412.606676 0.001200 0.000000                 
;  Krause
SUB-100W-F       RAINGAGE-6       390A-010         15.940142 5.000000 365.220550 0.025200 0.000000                 
;  Krause
SUB-100W-G       RAINGAGE-6       388A-192         39.381576 5.000000 1118.290691 0.000400 0.000000                 
;  Krause
SUB-100W-H       RAINGAGE-6       388A-226         79.949400 5.000000 1632.504849 0.352100 0.000000                 
;  Krause
SUB-100W-I       RAINGAGE-6       388A-123         45.238928 5.000000 994.838760 0.072700 0.000000                 
;  Krause
SUB-100W-J       RAINGAGE-6       388A-123         59.150203 5.000000 136.260289 0.108800 0.000000                 
;  Krause
SUB-100W-K       RAINGAGE-6       388A-078         69.657063 5.000000 123.354755 0.336000 0.000000                 
;  Krause
SUB-100W-L       RAINGAGE-6       388A-022         65.636778 5.000000 181.398008 0.689000 0.000000                 
;  Krause
SUB-100W-M       RAINGAGE-4       371A-161         95.932592 5.000000 799.412080 0.090900 0.000000                 
;  Krause
SUB-100W-N       RAINGAGE-6       395A-079         95.821564 5.000000 547.300230 0.399500 0.000000                 
;  Krause
SUB-100W-O       RAINGAGE-4       371A-357         33.781956 5.000000 59.207646 0.390100 0.000000                 
;  Krause
SUB-100W-P       RAINGAGE-4       371A-003         83.899250 5.000000 139.166309 0.679900 0.000000                 
;  Krause
SUB-100W-Q       RAINGAGE-6       364A-007         79.172651 5.000000 954.221766 0.332500 0.000000                 
;  Krause
SUB-100W-R       RAINGAGE-6       371A-134         132.615435 5.000000 250.651974 0.886600 0.000000                 
;  Krause
SUB-100W-S       RAINGAGE-6       395A-033         55.374408 5.000000 106.188096 0.237500 0.000000                 
;  Krause
SUB-100W-T       RAINGAGE-4       371A-107         84.653420 5.000000 164.130360 0.812900 0.000000                 
;  Krause
SUB-100W-U       RAINGAGE-6       363A-038         103.321022 5.000000 967.324952 0.267000 0.000000                 
;  Krause
SUB-100W-V       RAINGAGE-6       363A-001         30.110283 5.000000 348.576554 0.447000 0.000000                 
;  Krause
SUB-100W-W       RAINGAGE-4       316A-061         71.126417 5.000000 710.165052 0.718300 0.000000                 
;  Krause
SUB-100W-X       RAINGAGE-6       364A-007         25.729109 5.000000 432.734418 0.139200 0.000000                 
;  Krause
SUB-100W-Y       RAINGAGE-6       369A-215         49.792993 5.000000 709.830684 0.410200 0.000000                 
;  Krause
SUB-100W-Z       RAINGAGE-4       368A-008         106.800210 5.000000 1643.096311 0.482900 0.000000                 
;  Interbay
SUB-10A          RAINGAGE-6       246A-002         10.383349 5.000000 332.920396 0.350500 0.000000                 
;  Interbay
SUB-10B          RAINGAGE-6       246A-006         30.978014 5.000000 137.718408 0.360000 0.000000                 
;  Interbay
SUB-10C          RAINGAGE-6       246A-047         96.664215 5.000000 469.799777 0.294900 0.000000                 
;  Interbay
SUB-10D          RAINGAGE-6       246A-022         45.758162 5.000000 206.127955 0.298300 0.000000                 
;  Clark
SUB-12           RAINGAGE-6       117A-002         84.957057 5.000000 2363.647479 0.138800 0.000000                 
;  Coachman
SUB-14           RAINGAGE-6       118A-003         101.670974 5.000000 1429.998548 0.572500 0.000000                 
;  Knight
SUB-16           RAINGAGE-6       162A-002         81.010394 5.000000 1581.454312 0.329600 0.000000                 
;  Morrison
SUB-24A          RAINGAGE-6       391A-060         131.160008 5.000000 1549.584818 0.164600 0.000000                 
;  Morrison
SUB-24B          RAINGAGE-6       391A-023         69.244029 5.000000 762.524952 0.002200 0.000000                 
;  Morrison
SUB-24C          RAINGAGE-6       391A-001         45.046958 5.000000 301.361310 0.006800 0.000000                 
;  Morrison
SUB-24D          RAINGAGE-6       177A-015         66.024462 5.000000 576.703816 0.056600 0.000000                 
;  Morrison
SUB-24E          RAINGAGE-6       177A-003         16.219758 5.000000 132.244091 0.002800 0.000000                 
;  Carmen
SUB-26           RAINGAGE-6       114A-002         149.288236 5.000000 2380.853982 0.426700 0.000000                 
;  West Tampa
SUB-28           RAINGAGE-6       227A-002         80.377840 5.000000 1174.958543 0.202900 0.000000                 
;  Glenn Ave
SUB-30           RAINGAGE-6       267A-002         71.470757 5.000000 1780.506756 0.424500 0.000000                 
;  Perry PS
SUB-32A          RAINGAGE-4       190A-003         15.441491 5.000000 126.981991 1.030500 0.000000                 
;  Perry PS
SUB-32B          RAINGAGE-4       190A-016         11.222577 5.000000 485.406118 1.790100 0.000000                 
;  Perry PS
SUB-32C          RAINGAGE-4       190A-031         125.044031 5.000000 739.081186 0.492000 0.000000                 
;  Oak Ave
SUB-34           RAINGAGE-4       185A-002         24.763527 5.000000 852.265205 1.662800 0.000000                 
;  Ridgewood
SUB-36           RAINGAGE-4       195A-047         65.003830 5.000000 698.180938 1.213700 0.000000                 
;  Fremont
SUB-38           RAINGAGE-2       140A-002         56.632236 5.000000 1170.752340 0.693600 0.000000                 
;  Rome
SUB-40A          RAINGAGE-4       358A-001         84.513510 5.000000 1128.317344 1.422900 0.000000                 
;  Rome
SUB-40B          RAINGAGE-4       358A-001         24.505183 5.000000 327.876182 1.169800 0.000000                 
;  Rome
SUB-40C          RAINGAGE-4       199A-005         56.838428 5.000000 663.531186 0.878000 0.000000                 
;  Rome
SUB-40D          RAINGAGE-2       199A-026         71.547654 5.000000 615.598397 0.642000 0.000000                 
;  Rome
SUB-40E          RAINGAGE-2       199A-009         37.810692 5.000000 624.236351 0.751300 0.000000                 
;  Rome
SUB-40F          RAINGAGE-4       199A-006         55.004374 5.000000 922.579337 1.273200 0.000000                 
;  Rome
SUB-40G          RAINGAGE-4       358A-001         58.594517 5.000000 1245.956650 2.115300 0.000000                 
;  Virginia
SUB-42           RAINGAGE-4       225A-002         4.567376 5.000000 197.550967 0.442600 0.000000                 
;  Gomez
SUB-44A          RAINGAGE-6       116A-003         11.080070 5.000000 257.716091 0.002600 0.000000                 
;  Gomez
SUB-44B          RAINGAGE-6       116A-002         71.659314 5.000000 1616.198696 0.002200 0.000000                 
;  Gomez
SUB-44C          RAINGAGE-6       116A-012         18.693695 5.000000 493.953873 0.013300 0.000000                 
;  Gomez
SUB-44D          RAINGAGE-6       116A-024         104.433725 5.000000 1238.603512 0.064100 0.000000                 
;  Gomez
SUB-44E          RAINGAGE-6       116A-024         105.812976 5.000000 2493.450313 0.073600 0.000000                 
;  Cuba
SUB-46           RAINGAGE-4       121A-002         31.509391 5.000000 963.689635 0.738100 0.000000                 
;  Highland
SUB-48           RAINGAGE-2       152A-002         8.849808 5.000000 409.484649 3.929600 0.000000                 
;  Sligh
SUB-50           RAINGAGE-2       206A-002         61.332831 5.000000 1426.564213 4.165800 0.000000                 
;  Branch
SUB-52A          RAINGAGE-2       111A-301         106.859004 5.000000 521.515528 0.754000 0.000000                 
;  Branch
SUB-52B          RAINGAGE-2       111A-189         36.632732 5.000000 604.788534 1.759400 0.000000                 
;  Branch
SUB-52C          RAINGAGE-2       111A-208         106.284384 5.000000 1588.677688 2.529300 0.000000                 
;  Branch
SUB-52D          RAINGAGE-2       111A-248         60.676858 5.000000 1443.227500 2.382300 0.000000                 
;  Branch
SUB-52E          RAINGAGE-2       111A-152         47.082975 5.000000 1009.630385 4.034900 0.000000                 
;  Branch
SUB-52F          RAINGAGE-2       111A-096         123.214583 5.000000 1021.805276 1.209700 0.000000                 
;  Branch
SUB-52G          RAINGAGE-2       111A-072         15.568743 5.000000 581.781747 5.176300 0.000000                 
;  Branch
SUB-52H          RAINGAGE-2       111A-009         84.963404 5.000000 1197.755601 2.342800 0.000000                 
;  Branch
SUB-52I          RAINGAGE-2       111A-208         60.580470 5.000000 657.385253 1.311100 0.000000                 
;  Branch
SUB-52J          RAINGAGE-2       111A-208         98.537375 5.000000 1415.956072 1.422400 0.000000                 
;  Seminole
SUB-54           RAINGAGE-2       203A-002         23.087402 5.000000 667.295865 4.227900 0.000000                 
;  Dexter
SUB-56A          RAINGAGE-2       128A-002         64.683945 5.000000 1025.142126 0.970400 0.000000                 
;  Dexter
SUB-56B          RAINGAGE-2       128A-002         52.096486 5.000000 859.129267 1.277900 0.000000                 
;  Dexter
SUB-56C          RAINGAGE-2       128A-002         121.618162 5.000000 1982.079327 0.409800 0.000000                 
;  Egypt Lake
SUB-58           RAINGAGE-2       131A-002         125.160961 5.000000 1344.305219 0.778900 0.000000                 
;  Clearview
SUB-60A          RAINGAGE-2       281A-032         77.013964 5.000000 893.251810 0.299900 0.000000                 
;  Clearview
SUB-60B          RAINGAGE-2       281A-002         65.658937 5.000000 761.549874 0.642000 0.000000                 
;  Clearview
SUB-60C          RAINGAGE-2       281A-037         63.771887 5.000000 617.716032 0.586600 0.000000                 
;  Stall
SUB-62           RAINGAGE-1       232A-047         78.110176 5.000000 1331.363558 1.018800 0.000000                 
;  Lake Ellen
SUB-64           RAINGAGE-1       164A-003         41.568096 5.000000 1500.038154 0.939100 0.000000                 
;  Forest Hills
SUB-66           RAINGAGE-1       252-002          17.093905 5.000000 318.416595 0.628700 0.000000                 
;  Ralston Beach
SUB-68           RAINGAGE-2       194A-002         17.425275 5.000000 307.843262 0.171300 0.000000                 
;  Colwell
SUB-70           RAINGAGE-2       266A-002         94.892822 5.000000 706.261685 0.883900 0.000000                 
;  River Terrance
SUB-72           RAINGAGE-2       283A-011         71.981860 5.000000 1543.553295 2.920900 0.000000                 
;  Commanche
SUB-74           RAINGAGE-2       282A-002         40.625243 5.000000 871.153670 1.542200 0.000000                 
;  Visual Arts
SUB-76           RAINGAGE-4       163B-391S        9.342957 5.000000 457.305593 0.786400 0.000000                 
;  Burke
SUB-78           RAINGAGE-2       112A-002         126.645021 5.000000 1120.971062 0.387000 0.000000                 
;  Epps Park
SUB-80           RAINGAGE-2       134A-002         72.592327 5.000000 1168.081675 2.532500 0.000000                 
;  Dale Mabry
SUB-82           RAINGAGE-6       123A-002         36.238353 5.000000 461.384040 0.349300 0.000000                 
;  Bayshore
SUB-84A          RAINGAGE-6       106A-242         31.729907 5.000000 136.542384 0.327100 0.000000                 
;  Bayshore
SUB-84B          RAINGAGE-6       106A-195         92.292484 5.000000 1330.630433 0.369900 0.000000                 
;  Bayshore
SUB-84C          RAINGAGE-6       398A-010         107.336871 5.000000 1006.459564 0.225100 0.000000                 
;  Bayshore
SUB-84D          RAINGAGE-6       398A-017         90.752641 5.000000 1143.982397 0.220000 0.000000                 
;  Bayshore
SUB-84E          RAINGAGE-6       398A-008         105.444076 5.000000 1785.275480 0.792400 0.000000                 
;  Bayshore
SUB-84F          RAINGAGE-6       398A-003         30.387531 5.000000 402.340611 0.806900 0.000000                 
;  Bayshore
SUB-84G          RAINGAGE-6       106A-098         119.187426 5.000000 243.651455 0.507400 0.000000                 
;  Bayshore
SUB-84H          RAINGAGE-6       106A-092         15.134987 5.000000 33.493075 0.440000 0.000000                 
;  Bayshore
SUB-84I          RAINGAGE-6       106A-058         38.301375 5.000000 81.053377 0.693600 0.000000                 
;  Bayshore
SUB-84J          RAINGAGE-6       397A-011         30.560425 5.000000 65.485283 0.611800 0.000000                 
;  Bayshore
SUB-84K          RAINGAGE-6       106A-030         32.863106 5.000000 66.943151 0.653000 0.000000                 
;  Bayshore
SUB-84L          RAINGAGE-6       397A-027         58.497045 5.000000 1457.301017 0.672800 0.000000                 
;  Bayshore
SUB-84M          RAINGAGE-6       397A-027         118.282288 5.000000 617.377632 0.284800 0.000000                 
;  Bayshore
SUB-84N          RAINGAGE-6       106A-002         40.690108 5.000000 83.142375 1.019400 0.000000                 
;  Bayshore
SUB-84O          RAINGAGE-6       396A-002         37.758175 5.000000 76.556565 0.702300 0.000000                 
;  Bayshore
SUB-84P          RAINGAGE-6       396A-021         43.333951 5.000000 1678.989313 0.371000 0.000000                 
;  Bayshore
SUB-84Q          RAINGAGE-6       396A-021         122.967737 5.000000 242.659661 0.388100 0.000000                 
;  Bayshore
SUB-84R          RAINGAGE-6       397A-027         44.492875 5.000000 248.116971 0.082800 0.000000                 
;  Bayshore
SUB-84S          RAINGAGE-6       106A-173         52.804716 5.000000 914.867989 0.596300 0.000000                 
;  Whisper Lake
SUB-86           RAINGAGE-2       WLA-001          101.084555 5.000000 725.428615 0.283600 0.000000                 
;  White Trout Lake
SUB-88           RAINGAGE-2       WTL-002          22.242811 5.000000 229.524551 0.546500 0.000000                 
;  Lake Carroll Shore
SUB-90           RAINGAGE-1       LCS-007A         22.338791 5.000000 621.502875 1.196600 0.000000                 
;  109th
SUB-92A          RAINGAGE-2       183A-017         71.689561 5.000000 935.395720 0.405300 0.000000                 
;  109th
SUB-92B          RAINGAGE-1       183A-017         124.797372 5.000000 2571.250628 1.247900 0.000000                 
;  109th
SUB-92C          RAINGAGE-1       330A-009         84.496130 5.000000 1083.482324 1.448000 0.000000                 
;  109th
SUB-92D          RAINGAGE-1       330A-005         44.501474 5.000000 1219.211335 1.077200 0.000000                 
;  109th
SUB-92E          RAINGAGE-1       183A-002         28.210464 5.000000 793.557912 1.071000 0.000000                 
;  109th
SUB-92F          RAINGAGE-1       183A-008         19.626912 5.000000 615.092420 0.647700 0.000000                 
;  109th
SUB-92G          RAINGAGE-1       329A-012         83.454574 5.000000 1212.950445 1.364100 0.000000                 
;  109th
SUB-92H          RAINGAGE-1       329A-065         98.837628 5.000000 1042.858560 0.447800 0.000000                 
;  109th
SUB-92I          RAINGAGE-1       330A-002         59.392927 5.000000 1046.249197 0.686600 0.000000                 
;  109th
SUB-92J          RAINGAGE-1       330A-006         29.342891 5.000000 767.357616 0.615600 0.000000                 
;  109th
SUB-92K          RAINGAGE-1       330A-079         27.081474 5.000000 613.049556 0.689700 0.000000                 
;  109th
SUB-92L          RAINGAGE-1       330A-091         69.632553 5.000000 742.155564 0.770200 0.000000                 
;  109th
SUB-92M          RAINGAGE-1       330A-106         52.271567 5.000000 923.454965 1.043000 0.000000                 
;  109th
SUB-92N          RAINGAGE-1       330A-122         87.841214 5.000000 2006.370212 1.173900 0.000000                 
;  109th
SUB-92O          RAINGAGE-1       183A-017         96.303217 5.000000 1799.356821 0.719400 0.000000                 
;  109th
SUB-92P          RAINGAGE-1       329A-050         45.278640 5.000000 607.698845 0.501900 0.000000                 
;  Indiana
SUB-94           RAINGAGE-4       255A-001S        4.439769 5.000000 213.201424 1.536000 0.000000                 
;  Hanna
SUB-96A          RAINGAGE-2       332A-185         50.319489 5.000000 1297.031217 0.716600 0.000000                 
;  Hanna
SUB-96AA         RAINGAGE-2       332A-157         131.259926 5.000000 1765.545667 0.997300 0.000000                 
;  Hanna
SUB-96AB         RAINGAGE-2       336A-081         66.631145 5.000000 1471.240315 0.416300 0.000000                 
;  Hanna
SUB-96AC         RAINGAGE-2       336A-081         86.792511 5.000000 1432.902537 1.175100 0.000000                 
;  Hanna
SUB-96AD         RAINGAGE-2       332A-123         45.257165 5.000000 1557.576928 0.886700 0.000000                 
;  Hanna
SUB-96AE         RAINGAGE-2       331A-006         25.769263 5.000000 716.944046 0.422600 0.000000                 
;  Hanna
SUB-96AF         RAINGAGE-2       331A-039         78.014239 5.000000 1017.918977 0.586800 0.000000                 
;  Hanna
SUB-96AG         RAINGAGE-2       331A-168         95.104854 5.000000 1703.881184 1.153100 0.000000                 
;  Hanna
SUB-96AH         RAINGAGE-2       331A-168         82.408018 5.000000 1351.726254 1.109400 0.000000                 
;  Hanna
SUB-96AI         RAINGAGE-2       151A-004         23.261349 5.000000 901.269143 1.227000 0.000000                 
;  Hanna
SUB-96AJ         RAINGAGE-2       336A-002         70.274914 5.000000 1494.328465 1.725000 0.000000                 
;  Hanna
SUB-96B          RAINGAGE-2       332A-157         79.563924 5.000000 824.374547 0.979000 0.000000                 
;  Hanna
SUB-96C          RAINGAGE-2       336A-081         102.449557 5.000000 1659.028509 1.120700 0.000000                 
;  Hanna
SUB-96D          RAINGAGE-2       266A-002         167.287105 5.000000 2012.256427 0.950100 0.000000                 
;  Hanna
SUB-96E          RAINGAGE-2       151A-251         88.045595 5.000000 1504.894143 0.633900 0.000000                 
;  Hanna
SUB-96F          RAINGAGE-2       337A-077         124.907599 5.000000 1276.402362 1.179500 0.000000                 
;  Hanna
SUB-96G          RAINGAGE-2       331A-252         83.494544 5.000000 1754.648628 1.052600 0.000000                 
;  Hanna
SUB-96H          RAINGAGE-2       337A-069         16.559736 5.000000 506.466119 1.101800 0.000000                 
;  Hanna
SUB-96I          RAINGAGE-2       151A-004         92.142827 5.000000 882.997555 1.326100 0.000000                 
;  Hanna