[TITLE]
;;Project Title/Notes
    Myrtle Avenue  Clearwater  FL
    Proposed System  Future Conditions
    Myrtle Avenue  Clearwater  FL
    Proposed System  Future Land Use Conditions

[OPTIONS]
;;Option             Value
FLOW_UNITS           CFS
INFILTRATION         HORTON
FLOW_ROUTING         DYNWAVE
LINK_OFFSETS         DEPTH
MIN_SLOPE            0
ALLOW_PONDING        NO
SKIP_STEADY_STATE    NO

START_DATE           01/01/2001
START_TIME           00:00:00
REPORT_START_DATE    01/01/2001
REPORT_START_TIME    00:00:00
END_DATE             01/01/2001
END_TIME             02:00:00
SWEEP_START          01/01
SWEEP_END            12/31
DRY_DAYS             0
REPORT_STEP          00:01:00
WET_STEP             00:01:00
DRY_STEP             02:00:00
ROUTING_STEP         0:00:02 

INERTIAL_DAMPING     PARTIAL
NORMAL_FLOW_LIMITED  BOTH
FORCE_MAIN_EQUATION  H-W
VARIABLE_STEP        0.00
LENGTHENING_STEP     10
MIN_SURFAREA         12.557
MAX_TRIALS           8
HEAD_TOLERANCE       0.005
SYS_FLOW_TOL         5
LAT_FLOW_TOL         5
MINIMUM_STEP         0.5
THREADS              1

[EVAPORATION]
;;Data Source    Parameters
;;-------------- ----------------
CONSTANT         0.0
DRY_ONLY         NO

[RAINGAGES]
;;Name           Format    Interval SCF      Source    
;;-------------- --------- ------ ------ ----------
GAGE1            INTENSITY 0.25000  1.0      TIMESERIES RainSeries1     

[SUBCATCHMENTS]
;;Name           Rain Gage        Outlet           Area     %Imperv  Width    %Slope   CurbLen  SnowPack        
;;-------------- ---------------- ---------------- -------- -------- -------- -------- -------- ----------------
hBLTrail1        GAGE1            BLTrail1         2.39     100.0    683.1    1.2      0                        
hBLTrail4        GAGE1            BLTrail4         4.01     100.0    904.5    0.7      0                        
hBLTrail5        GAGE1            BLTrail5         13.96    100.0    1273.05  1.1      0                        
hDrew2           GAGE1            Drew2            2.2      100.0    436.05   0.9      0                        
hDrew3           GAGE1            Drew3            2.88     100.0    603.45   0.8      0                        
hDrew4           GAGE1            Drew4            3.13     100.0    753.3    0.7      0                        
hDrew5           GAGE1            Drew5            3.06     100.0    838.35   0.6      0                        
hDrew6           GAGE1            Drew6            1.57     100.0    660.15   0.7      0                        
hHart1           GAGE1            Hart1            14.04    66.5     1171.8   0.8      0                        
hHart4           GAGE1            Hart4            1.32     100.0    352.35   2.5      0                        
hJones2          GAGE1            Jones2           0.65     100.0    261.9    7.6      0                        
hJones3          GAGE1            Jones3           1.48     100.0    338.85   2.1      0                        
hJones5          GAGE1            Jones5           6.77     100.0    854.55   1.1      0                        
hJones7          GAGE1            Jones7           1.48     100.0    328.05   1.0      0                        
hNGarden4        GAGE1            NGarden4         3.64     100.0    541.35   0.2      0                        
hNGarden6        GAGE1            NGarden6         2.56     100.0    514.35   0.6      0                        
hNGarden7        GAGE1            NGarden7         2.35     100.0    369.9    0.8      0                        
hNMyrtle1A       GAGE1            NMyrtle1         11.69    100.0    897.75   0.8      0                        
hNMyrtle2        GAGE1            NMyrtle2         3.89     100.0    469.8    0.8      0                        
hNMyrtle4        GAGE1            NMyrtle4         7.13     100.0    405.0    0.9      0                        
hNMyrtle5        GAGE1            NMyrtle5         9.78     68.9     743.85   1.3      0                        
hNMyrtle7        GAGE1            NMyrtle7         3.52     81.0     654.75   1.9      0                        
hNMyrtle8        GAGE1            NMyrtle8         3.07     100.0    737.1    0.9      0                        
hNOsceola1       GAGE1            NOsceola1        1.95     100.0    340.2    1.2      0                        
hCleland2        GAGE1            Cleland2         1.0      100.0    260.55   2.3      0                        
hProspect3       GAGE1            Prospect3        3.6      100.0    545.4    0.4      0                        
hProspect1A      GAGE1            Prospect1        0.62     100.0    996.3    0.6      0                        
hProspect1B      GAGE1            TownPond         2.0      100.0    996.3    0.6      0                        
hProspect1C      GAGE1            Ewing1           3.0      100.0    996.3    0.6      0                        
hTownPond        GAGE1            TownPond         5.57     100.0    1424.25  0.2      0                        
hCleland1        GAGE1            Cleland1         4.25     100.0    739.8    2.5      0                        
hPierce5         GAGE1            Pierce5          5.78     100.0    702.0    1.8      0                        
hGrnwood4        GAGE1            Grnwood4         2.62     100.0    685.8    0.8      0                        
hGrnwood2        GAGE1            Grnwood2         3.34     100.0    787.05   0.7      0                        
hPierce7         GAGE1            Pierce7          2.46     100.0    1416.15  1.6      0                        
hPierce6         GAGE1            Pierce6          8.75     100.0    911.25   1.6      0                        
hGrnwood5        GAGE1            Grnwood5         17.03    80.0     832.95   0.8      0                        
hWashing2        GAGE1            Washing2         8.47     100.0    390.15   0.9      0                        
hWashing1        GAGE1            Washing1         4.4      100.0    857.25   0.6      0                        
hPierce9         GAGE1            Pierce9          11.41    100.0    862.65   1.6      0                        
hPierce10        GAGE1            Pierce10         16.55    100.0    1885.95  0.7      0                        
hNGarden3        GAGE1            NGarden3         3.66     100.0    982.8    0.9      0                        
hTurner6         GAGE1            Turner6          14.55    57.8     2135.7   0.9      0                        
hPierce26        GAGE1            Pierce26         2.81     100.0    2394.9   1.1      0                        
hPierce20        GAGE1            Pierce20         3.18     100.0    1730.7   3.7      0                        
hCourt1          GAGE1            Court1           4.85     97.5     866.7    1.8      0                        
hNMyrtle1B       GAGE1            NMyrtle1         7.0      100.0    1642.95  1.9      0                        
hChestnut1       GAGE1            Chestnut1        4.13     77.5     507.6    1.7      0                        
hPond1A          GAGE1            Pond1            4.0      100.0    3184.65  1.4      0                        
hPond1B          GAGE1            Prospect10       3.95     100.0    3184.65  1.4      0                        
hTurner1         GAGE1            Turner1          13.16    70.0     1613.25  1.9      0                        
hGrancen1        GAGE1            Grancen1         6.82     72.5     1578.15  0.7      0                        
hTuska1          GAGE1            Tuska1           4.22     70.5     938.25   0.5      0                        
hSMyrtle1        GAGE1            SMyrtle1         4.42     68.0     646.65   0.8      0                        
hMagnolia1       GAGE1            Magnolia1        4.84     80.0     665.55   0.6      0                        
hLotus1          GAGE1            Lotus1           13.99    69.2     965.25   1.2      0                        
hSMyrtle4        GAGE1            SMyrtle4         8.11     76.8     2640.6   4.3      0                        
hJasmine2        GAGE1            Jasmine2         7.89     76.0     1183.95  1.5      0                        
hDruid1          GAGE1            Druid1           20.96    78.8     3339.9   3.0      0                        
hSMyrtle6        GAGE1            SMyrtle6         11.93    72.5     1273.05  2.4      0                        
hProspect14      GAGE1            Prospect14       15.55    66.5     1537.65  2.0      0                        
hProspect13      GAGE1            Prospect13       10.12    66.2     789.75   1.4      0                        
hSMyrtle10       GAGE1            SMyrtle9         12.75    73.1     2060.1   1.3      0                        
hChestnut10      GAGE1            Chestnut10       4.82     100.0    2404.35  1.1      0                        
hTurner5         GAGE1            Turner5          18.57    97.5     3604.5   1.8      0                        
hChestnut15      GAGE1            Chestnut15       9.34     83.3     934.2    2.0      0                        
hTurner6B        GAGE1            Turner6          4.33     75.3     433.35   2.0      0                        
hPierce18        GAGE1            Pierce18         8.19     100.0    2164.05  1.8      0                        
hCleland4        GAGE1            Cleland4         5.29     100.0    1636.2   0.4      0                        
hAltUS19_2       GAGE1            AltUS19_2        3.56     100.0    1958.85  0.6      0                        
hSGarden6        GAGE1            SGarden6         7.54     100.0    2585.25  0.5      0                        
hSMyrtle21       GAGE1            SMyrtle21        4.45     100.0    2142.45  0.2      0                        
hSMyrtle20       GAGE1            SMyrtle20        5.4      100.0    718.2    0.7      0                        
hSMyrtle16       GAGE1            SMyrtle16        5.54     100.0    1763.1   0.4      0                        
hProspect7       GAGE1            Prospect7        5.23     100.0    2049.3   0.2      0                        
hPierce13        GAGE1            Pierce13         2.59     100.0    1821.15  0.2      0                        
hSMyrtle13       GAGE1            SMyrtle13        8.67     93.5     4145.85  0.5      0                        
hSMyrtle15       GAGE1            SMyrtle15        4.95     100.0    1402.65  0.5      0                        
hCourt14         GAGE1            Court14          5.16     100.0    1950.75  0.5      0                        
hCourt8          GAGE1            Court8           4.29     100.0    895.05   1.5      0                        
hPierce15        GAGE1            Pierce15         7.39     100.0    3778.65  0.8      0                        
hCourt11         GAGE1            Court11          6.12     100.0    2625.75  4.1      0                        
hFrank3          GAGE1            Frank3           6.36     100.0    2821.5   0.5      0                        
hSGarden3        GAGE1            SGarden3         7.82     100.0    1687.5   0.7      0                        

[SUBAREAS]
;;Subcatchment   N-Imperv   N-Perv     S-Imperv   S-Perv     PctZero    RouteTo    PctRouted 
;;-------------- ---------- ---------- ---------- ---------- ---------- ---------- ----------
hBLTrail1        0.015      0.25       0.1        0.25       25         OUTLET    
hBLTrail4        0.015      0.25       0.1        0.25       25         OUTLET    
hBLTrail5        0.015      0.25       0.1        0.25       25         OUTLET    
hDrew2           0.015      0.25       0.1        0.25       25         OUTLET    
hDrew3           0.015      0.25       0.1        0.25       25         OUTLET    
hDrew4           0.015      0.25       0.1        0.25       25         OUTLET    
hDrew5           0.015      0.25       0.1        0.25       25         OUTLET    
hDrew6           0.015      0.25       0.1        0.25       25         OUTLET    
hHart1           0.015      0.175      0.1        0.2        25         OUTLET    
hHart4           0.015      0.25       0.1        0.25       25         OUTLET    
hJones2          0.015      0.25       0.1        0.25       25         OUTLET    
hJones3          0.015      0.25       0.1        0.25       25         OUTLET    
hJones5          0.015      0.25       0.1        0.25       25         OUTLET    
hJones7          0.015      0.25       0.1        0.25       25         OUTLET    
hNGarden4        0.015      0.25       0.1        0.25       25         OUTLET    
hNGarden6        0.015      0.25       0.1        0.25       25         OUTLET    
hNGarden7        0.015      0.25       0.1        0.25       25         OUTLET    
hNMyrtle1A       0.015      0.25       0.29       0.44       25         OUTLET    
hNMyrtle2        0.015      0.25       0.1        0.25       25         OUTLET    
hNMyrtle4        0.015      0.25       0.3        0.45       25         OUTLET    
hNMyrtle5        0.015      0.177      0.1        0.2        25         OUTLET    
hNMyrtle7        0.015      0.188      0.1        0.21       25         OUTLET    
hNMyrtle8        0.015      0.25       0.3        0.45       25         OUTLET    
hNOsceola1       0.015      0.25       0.1        0.25       25         OUTLET    
hCleland2        0.015      0.25       0.1        0.25       25         OUTLET    
hProspect3       0.015      0.25       0.1        0.25       25         OUTLET    
hProspect1A      0.015      0.25       0.1        0.25       25         OUTLET    
hProspect1B      0.015      0.25       0.1        0.25       25         OUTLET    
hProspect1C      0.015      0.25       0.1        0.25       25         OUTLET    
hTownPond        0.015      0.25       0.1        0.25       25         OUTLET    
hCleland1        0.015      0.25       0.1        0.25       25         OUTLET    
hPierce5         0.015      0.25       0.1        0.25       25         OUTLET    
hGrnwood4        0.015      0.25       0.1        0.25       25         OUTLET    
hGrnwood2        0.015      0.25       0.1        0.25       25         OUTLET    
hPierce7         0.015      0.25       0.1        0.25       25         OUTLET    
hPierce6         0.015      0.25       0.1        0.25       25         OUTLET    
hGrnwood5        0.015      0.185      0.1        0.21       25         OUTLET    
hWashing2        0.015      0.25       0.1        0.25       25         OUTLET    
hWashing1        0.015      0.25       0.1        0.25       25         OUTLET    
hPierce9         0.015      0.25       0.1        0.25       25         OUTLET    
hPierce10        0.015      0.25       0.1        0.25       25         OUTLET    
hNGarden3        0.015      0.25       0.1        0.25       25         OUTLET    
hTurner6         0.015      0.179      0.1        0.2        25         OUTLET    
hPierce26        0.015      0.25       0.1        0.25       25         OUTLET    
hPierce20        0.015      0.25       0.1        0.25       25         OUTLET    
hCourt1          0.015      0.203      0.1        0.22       25         OUTLET    
hNMyrtle1B       0.015      0.25       0.1        0.25       25         OUTLET    
hChestnut1       0.015      0.203      0.1        0.22       25         OUTLET    
hPond1A          0.015      0.25       0.1        0.25       25         OUTLET    
hPond1B          0.015      0.25       0.1        0.25       25         OUTLET    
hTurner1         0.015      0.176      0.1        0.2        25         OUTLET    
hGrancen1        0.015      0.178      0.1        0.2        25         OUTLET    
hTuska1          0.015      0.183      0.1        0.21       25         OUTLET    
hSMyrtle1        0.015      0.177      0.1        0.2        25         OUTLET    
hMagnolia1       0.015      0.203      0.1        0.22       25         OUTLET    
hLotus1          0.015      0.176      0.1        0.2        25         OUTLET    
hSMyrtle4        0.015      0.173      0.1        0.2        25         OUTLET    
hJasmine2        0.015      0.187      0.1        0.21       25         OUTLET    
hDruid1          0.015      0.184      0.1        0.21       25         OUTLET    
hSMyrtle6        0.015      0.192      0.1        0.21       25         OUTLET    
hProspect14      0.015      0.173      0.1        0.2        25         OUTLET    
hProspect13      0.015      0.173      0.1        0.2        25         OUTLET    
hSMyrtle10       0.015      0.186      0.1        0.21       25         OUTLET    
hChestnut10      0.015      0.25       0.1        0.25       25         OUTLET    
hTurner5         0.015      0.203      0.1        0.22       25         OUTLET    
hChestnut15      0.015      0.201      0.1        0.22       25         OUTLET    
hTurner6B        0.015      0.2        0.1        0.22       25         OUTLET    
hPierce18        0.015      0.25       0.1        0.25       25         OUTLET    
hCleland4        0.015      0.25       0.1        0.25       25         OUTLET    
hAltUS19_2       0.015      0.25       0.1        0.25       25         OUTLET    
hSGarden6        0.015      0.25       0.1        0.25       25         OUTLET    
hSMyrtle21       0.015      0.25       0.1        0.25       25         OUTLET    
hSMyrtle20       0.015      0.25       0.1        0.25       25         OUTLET    
hSMyrtle16       0.015      0.25       0.1        0.25       25         OUTLET    
hProspect7       0.015      0.25       0.1        0.25       25         OUTLET    
hPierce13        0.015      0.25       0.1        0.25       25         OUTLET    
hSMyrtle13       0.015      0.178      0.1        0.2        25         OUTLET    
hSMyrtle15       0.015      0.25       0.1        0.25       25         OUTLET    
hCourt14         0.015      0.25       0.1        0.25       25         OUTLET    
hCourt8          0.015      0.25       0.1        0.25       25         OUTLET    
hPierce15        0.015      0.25       0.1        0.25       25         OUTLET    
hCourt11         0.015      0.25       0.1        0.25       25         OUTLET    
hFrank3          0.015      0.25       0.1        0.25       25         OUTLET    
hSGarden3        0.015      0.25       0.1        0.25       25         OUTLET    

[INFILTRATION]
;;Subcatchment   MaxRate    MinRate    Decay      DryTime    MaxInfil  
;;-------------- ---------- ---------- ---------- ---------- ----------
hBLTrail1        3.0        0.25       0.00056    0.01       0.0       
hBLTrail4        3.0        0.25       0.00056    0.01       0.0       
hBLTrail5        3.0        0.25       0.00056    0.01       0.0       
hDrew2           3.0        0.25       0.00056    0.01       0.0       
hDrew3           3.0        0.25       0.00056    0.01       0.0       
hDrew4           3.0        0.25       0.00056    0.01       0.0       
hDrew5           3.0        0.25       0.00056    0.01       0.0       
hDrew6           3.0        0.25       0.00056    0.01       0.0       
hHart1           2.04       0.17       0.00056    0.01       2.25      
hHart4           3.0        0.25       0.00056    0.01       0.0       
hJones2          3.0        0.25       0.00056    0.01       0.0       
hJones3          3.0        0.25       0.00056    0.01       0.0       
hJones5          3.0        0.25       0.00056    0.01       0.0       
hJones7          3.0        0.25       0.00056    0.01       0.0       
hNGarden4        3.0        0.25       0.00056    0.01       0.0       
hNGarden6        3.0        0.25       0.00056    0.01       0.0       
hNGarden7        3.0        0.25       0.00056    0.01       0.0       
hNMyrtle1A       3.0        0.25       0.00056    0.01       0.0       
hNMyrtle2        3.0        0.25       0.00056    0.01       0.0       
hNMyrtle4        3.0        0.25       0.00056    0.01       0.0       
hNMyrtle5        2.06       0.17       0.00056    0.01       2.28      
hNMyrtle7        2.21       0.18       0.00056    0.01       1.42      
hNMyrtle8        3.0        0.25       0.00056    0.01       0.0       
hNOsceola1       3.0        0.25       0.00056    0.01       0.0       
hCleland2        3.0        0.25       0.00056    0.01       0.0       
hProspect3       3.0        0.25       0.00056    0.01       0.0       
hProspect1A      3.0        0.25       0.00056    0.01       0.0       
hProspect1B      3.0        0.25       0.00056    0.01       0.0       
hProspect1C      3.0        0.25       0.00056    0.01       0.0       
hTownPond        3.0        0.25       0.00056    0.01       0.0       
hCleland1        3.0        0.25       0.00056    0.01       0.0       
hPierce5         3.0        0.25       0.00056    0.01       0.0       
hGrnwood4        3.0        0.25       0.00056    0.01       0.0       
hGrnwood2        3.0        0.25       0.00056    0.01       0.0       
hPierce7         3.0        0.25       0.00056    0.01       0.0       
hPierce6         3.0        0.25       0.00056    0.01       0.0       
hGrnwood5        2.18       0.18       0.00056    0.01       1.4       
hWashing2        3.0        0.25       0.00056    0.01       0.0       
hWashing1        3.0        0.25       0.00056    0.01       0.0       
hPierce9         3.0        0.25       0.00056    0.01       0.0       
hPierce10        3.0        0.25       0.00056    0.01       0.0       
hNGarden3        3.0        0.25       0.00056    0.01       0.0       
hTurner6         2.1        0.17       0.00056    0.01       0.26      
hPierce26        3.0        0.25       0.00056    0.01       0.0       
hPierce20        3.0        0.25       0.00056    0.01       0.0       
hCourt1          2.4        0.2        0.00056    0.01       2.65      
hNMyrtle1B       3.0        0.25       0.00056    0.01       0.0       
hChestnut1       2.4        0.2        0.00056    0.01       2.65      
hPond1A          3.0        0.25       0.00056    0.01       0.0       
hPond1B          3.0        0.25       0.00056    0.01       0.0       
hTurner1         2.05       0.17       0.00056    0.01       2.26      
hGrancen1        2.08       0.17       0.00056    0.01       2.3       
hTuska1          2.14       0.18       0.00056    0.01       2.37      
hSMyrtle1        2.06       0.17       0.00056    0.01       2.28      
hMagnolia1       2.4        0.2        0.00056    0.01       2.65      
hLotus1          2.06       0.17       0.00056    0.01       2.27      
hSMyrtle4        2.02       0.17       0.00056    0.01       2.23      
hJasmine2        2.2        0.18       0.00056    0.01       2.43      
hDruid1          2.15       0.18       0.00056    0.01       1.39      
hSMyrtle6        2.26       0.19       0.00056    0.01       2.5       
hProspect14      2.02       0.17       0.00056    0.01       2.23      
hProspect13      2.01       0.17       0.00056    0.01       2.22      
hSMyrtle10       2.18       0.18       0.00056    0.01       2.41      
hChestnut10      3.0        0.25       0.00056    0.01       0.0       
hTurner5         2.4        0.2        0.00056    0.01       1.55      
hChestnut15      2.37       0.2        0.00056    0.01       0.29      
hTurner6B        2.36       0.2        0.00056    0.01       0.29      
hPierce18        3.0        0.25       0.00056    0.01       0.0       
hCleland4        3.0        0.25       0.00056    0.01       0.0       
hAltUS19_2       3.0        0.25       0.00056    0.01       0.0       
hSGarden6        3.0        0.25       0.00056    0.01       0.0       
hSMyrtle21       3.0        0.25       0.00056    0.01       0.0       
hSMyrtle20       3.0        0.25       0.00056    0.01       0.0       
hSMyrtle16       3.0        0.25       0.00056    0.01       0.0       
hProspect7       3.0        0.25       0.00056    0.01       0.0       
hPierce13        3.0        0.25       0.00056    0.01       0.0       
hSMyrtle13       2.08       0.17       0.00056    0.01       2.29      
hSMyrtle15       3.0        0.25       0.00056    0.01       0.0       
hCourt14         3.0        0.25       0.00056    0.01       0.0       
hCourt8          3.0        0.25       0.00056    0.01       0.0       
hPierce15        3.0        0.25       0.00056    0.01       0.0       
hCourt11         3.0        0.25       0.00056    0.01       0.0       
hFrank3          3.0        0.25       0.00056    0.01       0.0       
hSGarden3        3.0        0.25       0.00056    0.01       0.0       

[OUTFALLS]
;;Name           Elevation  Type       Stage Data       Gated    Route To        
;;-------------- ---------- ---------- ---------------- -------- ----------------
Jones_OF         -2.1       FIXED      3                NO                       
Outfall1         -2.1       FIXED      3                NO                       
Outfall1b        6.0        FIXED      3                NO                       
Outfall2         0.09       FIXED      3                NO                       
Outfall3         2.74       FIXED      3                NO                       
Outfall4         -3.03      FIXED      3                NO                       
Pinell_OF        42.1       FREE                        NO                       

[STORAGE]
;;Name           Elev.    MaxDepth   InitDepth  Shape      Curve Name/Params            N/A      Fevap    Psi      Ksat     IMD     
;;-------------- -------- ---------- ----------- ---------- ---------------------------- -------- --------          -------- --------
BLTrail1         18.34    21.66      0.0        TABULAR    BLTrail1                     0        0       
BLTrail4         19.52    20.48      0.0        TABULAR    BLTrail4                     0        0       
BLTrail5         21.48    28.52      0.0        TABULAR    BLTrail5                     0        0       
Hart4            25.0     25.0       0.0        TABULAR    Hart4                        0        0       
Jones5           12.06    27.94      0.0        TABULAR    Jones5                       0        0       
NGarden6         21.05    28.95      0.0        TABULAR    NGarden6                     0        0       
NMyrtle6         13.15    26.85      0.0        TABULAR    NMyrtle6                     0        0       
Rogers1          18.75    21.25      0.0        FUNCTIONAL 22000.0   0         0        0        0       
Druid5           19.17    20.83      0.12       FUNCTIONAL 7950.0    0         0        0        0       
Jasmine3         20.26    29.74      1.24       FUNCTIONAL 3250.0    0         0        0        0       
Magnolia1        26.74    23.26      0.0        FUNCTIONAL 4500.0    0         0        0        0       
Pond2            17.89    22.11      0.03       FUNCTIONAL 200.0     0         0        0        0       
Prospect1w       15.55    24.45      0.0        FUNCTIONAL 200.0     0         0        0        0       
Pinellas1        45.3     24.7       0.0        FUNCTIONAL 200.0     0         0        0        0       
TownPondw        15.15    24.85      0.0        TABULAR    TownPondw                    0        0       
TownPond         0.0      40.0       15.5       TABULAR    TownPond                     0        0       
Pond1            17.92    22.08      0.0        TABULAR    Pond1                        0        0       
Jasmine2         21.35    28.65      0.15       TABULAR    Jasmine2                     0        0       
Magnolia2        25.64    24.36      0.0        TABULAR    Magnolia2                    0        0       
Druid1           20.22    29.78      0.0        TABULAR    Druid1                       0        0       
SMyrtle7         14.09    25.91      0.0        TABULAR    SMyrtle7                     0        0       
SMyrtle10        13.17    26.83      0.0        TABULAR    SMyrtle10                    0        0       
SMyrtle13        16.1     23.9       0.0        TABULAR    SMyrtle13                    0        0       
Pierce11         15.7     24.3       0.0        TABULAR    Pierce11                     0        0       
BLTrail2         19.28    20.72      0.0        TABULAR    BLTrail2                     0        0       
BLTrail3         19.67    20.33      0.0        TABULAR    BLTrail3                     0        0       
Drew1            23.5     26.5       0.0        TABULAR    Drew1                        0        0       
Drew2            23.65    26.35      0.0        TABULAR    Drew2                        0        0       
Drew3            24.43    25.57      0.28       TABULAR    Drew3                        0        0       
Drew4            24.97    25.03      0.0        TABULAR    Drew4                        0        0       
Drew5            22.57    27.43      0.0        TABULAR    Drew5                        0        0       
Drew6            20.74    29.26      0.0        TABULAR    Drew6                        0        0       
Hart1            17.36    22.64      0.0        TABULAR    Hart1                        0        0       
Hart2            20.98    29.02      0.0        TABULAR    Hart2                        0        0       
Hart3            24.93    25.07      0.0        TABULAR    Hart3                        0        0       
Jones1           -1.72    31.72      4.72       TABULAR    Jones1                       0        0       
Jones2           2.85     27.15      0.15       TABULAR    Jones2                       0        0       
Jones3           10.5     29.5       0.0        TABULAR    Jones3                       0        0       
Jones4           11.5     28.5       0.0        TABULAR    Jones4                       0        0       
Jones6           12.42    27.58      0.0        TABULAR    Jones6                       0        0       
Jones7           12.8     27.2       0.0        TABULAR    Jones7                       0        0       
NGarden4         21.38    28.62      0.07       TABULAR    NGarden4                     0        0       