[TITLE]
;;Project Title/Notes

[OPTIONS]
;;Option             Value
FLOW_UNITS           GPM
INFILTRATION         HORTON
FLOW_ROUTING         DYNWAVE
LINK_OFFSETS         DEPTH
MIN_SLOPE            0
ALLOW_PONDING        NO
SKIP_STEADY_STATE    NO

IGNORE_RAINFALL      YES
IGNORE_SNOWMELT      YES
IGNORE_GROUNDWATER   YES
IGNORE_QUALITY       YES
START_DATE           01/01/2016
START_TIME           00:00:00
REPORT_START_DATE    01/01/2016
REPORT_START_TIME    00:00:00
END_DATE             01/02/2016
END_TIME             00:00:00
SWEEP_START          03/01
SWEEP_END            04/01
DRY_DAYS             5.000000
REPORT_STEP          00:01:00
WET_STEP             01:00:00
DRY_STEP             23:00:00
ROUTING_STEP         0:00:05 

INERTIAL_DAMPING     NONE
NORMAL_FLOW_LIMITED  SLOPE
FORCE_MAIN_EQUATION  H-W
VARIABLE_STEP        0.75
LENGTHENING_STEP     5
MIN_SURFAREA         12.557
MAX_TRIALS           8
HEAD_TOLERANCE       0.000010
SYS_FLOW_TOL         5
LAT_FLOW_TOL         5
MINIMUM_STEP         0
THREADS              1

[EVAPORATION]
;;Data Source    Parameters
;;-------------- ----------------
CONSTANT         0.000000
DRY_ONLY         NO

[JUNCTIONS]
;;Name           Elevation  MaxDepth   InitDepth  SurDepth   Aponded   
;;-------------- ---------- ---------- ---------- ---------- ----------
JBR-001NODE1     80.340000  3.000000   0.000000   799.920000 0.000000  
; New Junction
JCT-14           91.000000  3.000000   0.000000   799.920000 0.000000  
; New Junction
JCT-16           82.000000  3.000000   0.000000   799.920000 0.000000  
; New Junction
JCT-18           77.000000  3.000000   0.000000   799.920000 0.000000  
; New Junction
JCT-20           63.000000  3.000000   4.720000   799.920000 0.000000  
; New Junction
JCT-24           92.000000  4.000000   0.000000   799.920000 0.000000  
; New Junction
JCT-26           109.000000 3.000000   0.000000   799.920000 0.000000  
; New Junction
JCT-28           88.000000  6.000000   0.000000   799.920000 0.000000  
; New Junction
JCT-30           95.000000  5.000000   0.000000   799.920000 0.000000  
; New Junction
JCT-32           95.000000  5.000000   0.000000   799.920000 0.000000  
MCPS-001NODE     52.300000  0.500000   0.000000   799.920000 0.000000  
MOK-001NODE      65.000000  0.330000   0.000000   799.920000 0.000000  
MOK-001NODE1     75.000000  3.000000   0.000000   799.920000 0.000000  
MOK-001NODE2     74.500000  3.500000   0.000000   799.920000 0.000000  
MOK-002NODE      40.300000  0.500000   0.000000   799.920000 0.000000  
MOK-002NODE1     77.000000  3.000000   0.000000   799.920000 0.000000  
MOK-002NODE2     86.000000  3.000000   0.000000   799.920000 0.000000  
MOK-003NODE      63.670000  0.330000   0.000000   799.920000 0.000000  
MOK-004NODE      51.167000  1.000000   0.000000   799.920000 0.000000  
MOK-005NODE      63.830000  0.500000   0.000000   799.920000 0.000000  
MOK-006NODE      45.000000  0.500000   0.000000   799.920000 0.000000  
MOK-006NODE1     72.000000  3.000000   0.000000   799.920000 0.000000  
MOK-007NODE      64.500000  0.500000   0.000000   799.920000 0.000000  
MOK-008NODE      54.250000  0.500000   0.000000   799.920000 0.000000  
MOK-008NODE1     73.000000  3.000000   0.000000   799.920000 0.000000  
MOK-008NODE1A    87.000000  3.000000   0.000000   799.920000 0.000000  
MOK-009NODE      64.000000  0.500000   0.000000   799.920000 0.000000  
MOK-009NODE1     75.000000  3.000000   0.000000   799.920000 0.000000  
MOK-009NODE1A_A  76.000000  3.000000   0.000000   799.920000 0.000000  
MOK-010NODE      74.160000  0.500000   0.000000   799.920000 0.000000  
MOK-011NODE      57.250000  0.670000   0.000000   799.920000 0.000000  
MOK-012NODE      70.000000  0.330000   0.000000   799.920000 0.000000  
MOK-012NODE1     73.000000  3.000000   0.000000   799.920000 0.000000  
MOK-013NODE      76.000000  0.166600   0.000000   799.920000 0.000000  
MOK-014NODE      82.000000  0.166700   0.000000   799.920000 0.000000  
MOK-015NODE      79.500000  0.166700   0.000000   799.920000 0.000000  
MOK-015NODE1     86.000000  3.000000   0.000000   799.920000 0.000000  
MOK-016NODE      80.000000  0.166670   0.000000   799.920000 0.000000  
MOK-016NODE1     73.000000  3.000000   0.000000   799.920000 0.000000  
MOK-017NODE      80.000000  0.166700   0.000000   799.920000 0.000000  
MOK-017NODE1     84.000000  3.000000   0.000000   799.920000 0.000000  
MOK-018NODE      72.500000  0.500000   0.000000   799.920000 0.000000  
MOK-019NODE      79.000000  0.166700   0.000000   799.920000 0.000000  
MOK-019NODE1     77.500000  3.000000   0.000000   799.920000 0.000000  
MOK-019NODE1A    87.000000  3.000000   0.000000   799.920000 0.000000  
MOK-019NODE2     84.000000  3.000000   0.000000   799.920000 0.000000  
MOK-019NODE3     77.480000  6.020000   0.000000   0.000000   0.000000  
MOK-020NODE      62.830000  0.500000   0.000000   799.920000 0.000000  
MOK-021NODE      60.750000  0.500000   0.000000   799.920000 0.000000  
MOK-022NODE      70.500000  1.000000   0.000000   799.920000 0.000000  
MOK-022NODE1     58.000000  3.000000   0.000000   799.920000 0.000000  
MOK-022NODE2     88.000000  3.000000   0.000000   799.920000 0.000000  
MOK-022NODE_A    80.290000  4.860000   0.000000   799.920000 0.000000  
MOK-022NODE_B    79.700000  5.100000   0.000000   0.000000   0.000000  
PRV-001NODE      74.000000  0.333000   0.000000   799.920000 0.000000  
PRV-001NODE1     66.000000  3.000000   0.000000   799.920000 0.000000  
PRV-002NODE      76.690000  0.333000   0.000000   799.920000 0.000000  
PRV-003NODE      72.550000  0.170000   0.000000   799.920000 0.000000  
PRV-003NODE1     75.100000  2.900000   0.000000   799.920000 0.000000  
PRV-004NODE      74.120000  0.170000   0.000000   799.920000 0.000000  
PRV-004NODE1     75.000000  3.000000   0.000000   799.920000 0.000000  
PRV-005NODE      71.400000  0.170000   0.000000   799.920000 0.000000  
PRV-006NODE      68.610000  0.170000   0.000000   799.920000 0.000000  
PRV-006NODE1     78.000000  3.000000   0.000000   799.920000 0.000000  
PRV-007NODE      93.800000  0.166700   0.000000   799.920000 0.000000  
SM-390           72.570000  9.430000   0.000000   799.920000 0.000000  
SM-391           70.690000  9.310000   0.000000   0.000000   0.000000  
SM-392           69.520000  7.480000   0.000000   0.000000   0.000000  
; Manhole
SM-393           68.370000  9.630000   0.000000   0.000000   0.000000  
; Manhole
SM-396           70.140000  5.860000   0.000000   0.000000   0.000000  
SM-405           67.680000  11.320000  0.000000   0.000000   0.000000  
SM-406           66.250000  13.750000  0.000000   0.000000   0.000000  
SM-407           64.830000  14.170000  0.000000   0.000000   0.000000  
SM-413           69.150000  11.350000  0.000000   0.000000   0.000000  
SM-421           70.210000  14.790000  0.000000   0.000000   0.000000  
SM-422           72.280000  10.720000  0.000000   0.000000   0.000000  
SM-423           74.030000  10.970000  0.000000   0.000000   0.000000  
SM-424           75.500000  10.500000  0.000000   0.000000   0.000000  
SM-430           69.550000  7.450000   0.000000   0.000000   0.000000  
SM-432           72.620000  8.880000   0.000000   0.000000   0.000000  
SM-435           76.570000  6.430000   0.000000   0.000000   0.000000  
SM-439           65.140000  9.360000   0.000000   0.000000   0.000000  
SM-440           63.800000  7.200000   0.000000   0.000000   0.000000  
; Manhole
SM-4472          58.350000  10.650000  0.000000   0.000000   0.000000  
SM-448           53.250000  16.750000  0.000000   0.000000   0.000000  
SM-449           54.490000  25.510000  0.000000   0.000000   0.000000  
SM-450           55.520000  27.480000  0.000000   0.000000   0.000000  
; Manhole
SM-4500          59.330000  11.670000  0.000000   0.000000   0.000000  
SM-451           56.450000  20.050000  0.000000   0.000000   0.000000  
SM-452           57.510000  12.490000  0.000000   0.000000   0.000000  
SM-453           60.590000  4.410000   0.000000   0.000000   0.000000  
SM-454           64.550000  9.450000   0.000000   0.000000   0.000000  
SM-458           58.510000  6.490000   0.000000   0.000000   0.000000  
; Manhole
SM-459           56.770000  6.730000   0.000000   0.000000   0.000000  
SM-460           51.250000  12.750000  0.000000   0.000000   0.000000  
SM-461           50.170000  14.330000  0.000000   0.000000   0.000000  
; Manhole
SM-462           49.490000  17.010000  0.000000   0.000000   0.000000  
SM-468           68.210000  12.290000  0.000000   0.000000   0.000000  
SM-469           74.550000  8.450000   4.720000   0.000000   0.000000  
SM-470           72.370000  10.630000  0.000000   0.000000   0.000000  
; Manhole
SM-4714          76.000000  4.000000   0.000000   0.000000   0.000000  
SM-476           69.300000  6.700000   0.000000   0.000000   0.000000  
SM-478           71.840000  10.160000  0.000000   0.000000   0.000000  
; Manhole
SM-4793          67.670000  6.330000   0.000000   0.000000   0.000000  
; Manhole
SM-4799          59.410000  10.590000  0.000000   0.000000   0.000000  
SM-493           80.640000  2.860000   0.000000   0.000000   0.000000  
SM-510           70.210000  9.790000   0.000000   0.000000   0.000000  
; Manhole
SM-511           69.250000  10.750000  0.000000   0.000000   0.000000  
SM-522           71.010000  10.990000  0.000000   0.000000   0.000000  
SM-524           72.820000  7.680000   0.000000   0.000000   0.000000  
SM-525           74.210000  10.790000  0.000000   0.000000   0.000000  
SM-526           75.970000  11.030000  0.000000   0.000000   0.000000  
SM-529           77.090000  11.910000  0.000000   0.000000   0.000000  
SM-530           78.150000  12.850000  0.000000   0.000000   0.000000  
SM-532           79.370000  14.630000  0.000000   0.000000   0.000000  
SM-533           79.850000  13.150000  0.000000   0.000000   0.000000  
SM-535           80.620000  11.380000  0.000000   0.000000   0.000000  
; Manhole
SM-536           77.830000  7.170000   0.000000   0.000000   0.000000  
; Manhole
SM-546           64.190000  9.810000   0.000000   0.000000   0.000000  
SM-551           62.210000  18.790000  0.000000   0.000000   0.000000  
SM-552           61.550000  19.450000  0.000000   0.000000   0.000000  
SM-554           58.830000  13.170000  0.000000   0.000000   0.000000  
SM-555           60.120000  14.880000  0.000000   0.000000   0.000000  
SM-569           63.380000  16.620000  0.000000   0.000000   0.000000  
; Manhole
SM-580           56.500000  6.000000   0.000000   0.000000   0.000000  
SM-581           58.150000  5.850000   0.000000   0.000000   0.000000  
SM-593           61.510000  7.490000   0.000000   0.000000   0.000000  
SM-594           65.090000  8.410000   0.000000   0.000000   0.000000  
SM-599           69.046000  9.954000   0.000000   0.000000   0.000000  
SM-600           72.560000  8.440000   0.000000   0.000000   0.000000  
SM-604           75.910000  6.590000   0.000000   0.000000   0.000000  
; Manhole
SM-607           81.000000  4.000000   0.000000   0.000000   0.000000  
SM-609A          57.350000  9.150000   0.000000   0.000000   0.000000  
SM-610           57.400000  14.100000  0.000000   0.000000   0.000000  
; Manhole
SM-668           70.550000  8.450000   0.000000   0.000000   0.000000  
SM-670           71.700000  6.300000   0.000000   0.000000   0.000000  
SM-683           73.800000  6.700000   0.000000   0.000000   0.000000  
SM-684           75.540000  9.460000   0.000000   0.000000   0.000000  
SM-684A1         84.000000  3.000000   0.000000   799.920000 0.000000  
SM-708           61.060000  5.940000   0.000000   0.000000   0.000000  
SM-709           60.570000  6.430000   0.000000   0.000000   0.000000  
SM-710           59.450000  7.550000   0.000000   0.000000   0.000000  
SM-716           62.540000  9.460000   0.000000   0.000000   0.000000  
SM-717           63.980000  13.520000  0.000000   0.000000   0.000000  
SM-722           69.810000  14.190000  0.000000   0.000000   0.000000  
SM-723           68.310000  14.690000  0.000000   0.000000   0.000000  
SM-725           66.830000  15.170000  0.000000   0.000000   0.000000  
SM-726           65.380000  14.120000  0.000000   0.000000   0.000000  
SM-742           74.660000  12.340000  0.000000   0.000000   0.000000  
SM-743           77.530000  13.470000  0.000000   0.000000   0.000000  
SM-745           81.120000  7.880000   0.000000   0.000000   0.000000  
SM-746           84.000000  3.000000   0.000000   0.000000   0.000000  
; Manhole
SM-752           81.167000  3.833000   0.000000   0.000000   0.000000  
; Manhole
SM-756           55.000000  19.000000  0.000000   0.000000   0.000000  
; Manhole
SM-796           46.970000  12.030000  0.000000   0.000000   0.000000  
; Manhole
SM-808           51.240000  12.760000  0.000000   0.000000   0.000000  
; Manhole
SM-859           63.360000  17.640000  0.000000   0.000000   0.000000  
SMG-001NODE      75.500000  0.666700   0.000000   0.000000   0.000000  
SMG-001NODE1     91.000000  3.000000   0.000000   799.920000 0.000000  
SMG-002NODE      40.830000  0.500000   0.000000   799.920000 0.000000  
SMG-002NODE1     65.000000  3.000000   0.000000   799.920000 0.000000  
SMG-002NODE2     72.000000  3.000000   0.000000   799.920000 0.000000  
SMG-003NODE      68.500000  0.500000   0.000000   799.920000 0.000000  
SMG-003NODE1     73.000000  3.000000   0.000000   799.920000 0.000000  
SMG-003NODE2     95.000000  3.000000   0.000000   799.920000 0.000000  
SMG-003NODE2A    99.000000  3.000000   0.000000   799.920000 0.000000  
SMG-004NODE      54.790000  0.330000   0.000000   799.920000 0.000000  
SMG-005NODE      57.500000  0.500000   0.000000   799.920000 0.000000  
SMG-005NODEA     79.000000  3.000000   0.000000   799.920000 0.000000  
SMG-006NODE      36.750000  0.500000   0.000000   799.920000 0.000000  
SMG-006NODE1     71.000000  3.000000   0.000000   799.920000 0.000000  
SMG-006NODE1A    80.000000  3.000000   0.000000   799.920000 0.000000  
SMG-006NODE1A_1  73.000000  3.000000   0.000000   799.920000 0.000000  
SMG-007NODE      52.000000  0.500000   0.000000   799.920000 0.000000  
SMG-008NODE      75.040000  0.500000   0.000000   799.920000 0.000000  
; New Junction
SMG-008NODE1     107.000000 3.000000   0.000000   799.920000 0.000000  
; New Junction
SMG-008NODEA     94.000000  3.000000   0.000000   799.920000 0.000000  
SMG-009NODE      56.000000  0.667000   0.000000   799.920000 0.000000  
SMG-009NODE1     97.000000  6.000000   0.000000   799.920000 0.000000  
SMG-010NODE      58.500000  0.333000   0.000000   799.920000 0.000000  
SMG-010NODE1     71.000000  3.000000   0.000000   799.920000 0.000000  

[OUTFALLS]
;;Name           Elevation  Type       Stage Data       Gated    Route To        
;;-------------- ---------- ---------- ---------------- -------- ----------------
OUTFALL-001      126.500000 FREE                        YES                      

[STORAGE]
;;Name           Elev.    MaxDepth   InitDepth  Shape      Curve Name/Params            N/A      Fevap    Psi      Ksat     IMD     
;;-------------- -------- ---------- ----------- ---------- ---------------------------- -------- --------          -------- --------
WW_MCPS-001      52.300000 14.200000  2.100000   FUNCTIONAL 0.000000  0.000000  28.274000 0.000000 0.000000
; MOK-001Wet Well
WW_MOK-001       65.000000 10.000000  1.500000   FUNCTIONAL 0.000000  0.000000  23.758000 0.000000 0.000000
; MOK-002Wet Well
WW_MOK-002       40.300000 22.700000  4.500000   FUNCTIONAL 0.000000  0.000000  42.233000 0.000000 0.000000
; MOK-003Wet Well
WW_MOK-003       63.670000 12.330000  1.500000   FUNCTIONAL 0.000000  0.000000  8.296000 0.000000 0.000000
; MOK-004Wet Well
WW_MOK-004       51.167000 16.333000  2.600000   FUNCTIONAL 0.000000  0.000000  28.274000 0.000000 0.000000
; MOK-005Wet Well
WW_MOK-005       63.830000 16.170000  1.800000   FUNCTIONAL 0.000000  0.000000  29.065000 0.000000 0.000000
; MOK-006Wet Well
WW_MOK-006       45.000000 15.750000  2.200000   FUNCTIONAL 0.000000  0.000000  28.274000 0.000000 0.000000
; MOK-007Wet Well
WW_MOK-007       64.500000 15.000000  2.200000   FUNCTIONAL 0.000000  0.000000  36.674000 0.000000 0.000000
; MOK-008Wet Well
WW_MOK-008       54.250000 16.750000  1.800000   FUNCTIONAL 0.000000  0.000000  35.785000 0.000000 0.000000
; MOK-009Wet Well
WW_MOK-009       64.000000 10.000000  1.500000   FUNCTIONAL 0.000000  0.000000  12.566000 0.000000 0.000000
; MOK-010Wet Well
WW_MOK-010       74.160000 11.840000  1.500000   FUNCTIONAL 0.000000  0.000000  21.648000 0.000000 0.000000
; MOK-011Wet Well
WW_MOK-011       57.250000 14.250000  3.000000   FUNCTIONAL 0.000000  0.000000  26.725000 0.000000 0.000000
; MOK-012Wet Well
WW_MOK-012       70.000000 7.000000   1.000000   FUNCTIONAL 0.000000  0.000000  12.566000 0.000000 0.000000
; MOK-013Wet Well
WW_MOK-013       76.000000 6.000000   1.000000   FUNCTIONAL 0.000000  0.000000  9.621000 0.000000 0.000000
; MOK-014Wet Well
WW_MOK-014       82.000000 6.000000   1.000000   FUNCTIONAL 0.000000  0.000000  12.566000 0.000000 0.000000
; MOK-015Wet Well
WW_MOK-015       79.500000 6.000000   1.000000   FUNCTIONAL 0.000000  0.000000  12.566000 0.000000 0.000000
; MOK-016Wet Well
WW_MOK-016       80.000000 6.000000   2.000000   FUNCTIONAL 0.000000  0.000000  12.566000 0.000000 0.000000
; MOK-017Wet Well
WW_MOK-017       80.000000 6.000000   1.000000   FUNCTIONAL 0.000000  0.000000  12.566000 0.000000 0.000000
; MOK-018Wet Well
WW_MOK-018       72.500000 16.000000  1.800000   FUNCTIONAL 0.000000  0.000000  22.337000 0.000000 0.000000
; MOK-019Wet Well
WW_MOK-019       79.000000 6.000000   1.000000   FUNCTIONAL 0.000000  0.000000  9.168000 0.000000 0.000000
; MOK-020Wet Well
WW_MOK-020       62.830000 14.170000  2.000000   FUNCTIONAL 0.000000  0.000000  26.725000 0.000000 0.000000
; MOK-021Wet Well
WW_MOK-021       60.750000 25.250000  2.000000   FUNCTIONAL 0.000000  0.000000  46.164000 0.000000 0.000000
; MOK-022Wet Well
WW_MOK-022       70.500000 14.500000  3.000000   FUNCTIONAL 0.000000  0.000000  120.000000 0.000000 0.000000
WW_PRV-003       72.550000 8.050000   1.000000   FUNCTIONAL 0.000000  0.000000  7.068000 0.000000 0.000000
WW_PRV-004       74.120000 8.010000   1.000000   FUNCTIONAL 0.000000  0.000000  7.069000 0.000000 0.000000
WW_PRV-005       71.400000 8.600000   1.200000   FUNCTIONAL 0.000000  0.000000  12.566000 0.000000 0.000000
WW_PRV-006       68.610000 8.000000   1.300000   FUNCTIONAL 0.000000  0.000000  7.069000 0.000000 0.000000
WW_PRV-007       93.800000 6.000000   0.700000   FUNCTIONAL 0.000000  0.000000  12.566000 0.000000 0.000000
; CCCWet Well
WW_PRV001        74.000000 7.000000   1.000000   FUNCTIONAL 0.000000  0.000000  12.566000 0.000000 0.000000
; BBBWet Well
WW_PRV002        76.690000 6.310000   1.000000   FUNCTIONAL 0.000000  0.000000  7.069000 0.000000 0.000000
; SMG-001Wet Well
WW_SMG-001       75.500000 20.000000  3.500000   FUNCTIONAL 0.000000  0.000000  50.265000 0.000000 0.000000
; SMG-002Wet Well
WW_SMG-002       40.830000 26.170000  2.000000   FUNCTIONAL 0.000000  0.000000  26.725000 0.000000 0.000000
; SMG-003Wet Well
WW_SMG-003       68.500000 13.750000  0.800000   FUNCTIONAL 0.000000  0.000000  25.967000 0.000000 0.000000
; SMG-004Wet Well
WW_SMG-004       54.790000 21.980000  1.700000   FUNCTIONAL 0.000000  0.000000  26.725000 0.000000 0.000000
; SMG-005Wet Well
WW_SMG-005       57.500000 23.500000  2.500000   FUNCTIONAL 0.000000  0.000000  50.265000 0.000000 0.000000
; SMG-006Wet Well
WW_SMG-006       36.750000 22.250000  2.500000   FUNCTIONAL 0.000000  0.000000  50.265000 0.000000 0.000000
; SMG-007Wet Well
WW_SMG-007       52.000000 16.000000  2.500000   FUNCTIONAL 0.000000  0.000000  50.265000 0.000000 0.000000
; SMG-008Wet Well
WW_SMG-008       75.040000 12.960000  2.000000   FUNCTIONAL 0.000000  0.000000  50.265000 0.000000 0.000000
; SMG-009Wet Well
WW_SMG-009       56.000000 20.200000  4.000000   FUNCTIONAL 0.000000  0.000000  113.097000 0.000000 0.000000
; SMG-010Wet Well
WW_SMG-010       58.500000 10.000000  2.300000   FUNCTIONAL 0.000000  0.000000  28.274000 0.000000 0.000000

[CONDUITS]
;;Name           From Node        To Node          Length     Roughness  InOffset   OutOffset  InitFlow   MaxFlow   
;;-------------- ---------------- ---------------- ---------- ---------- ---------- ---------- ---------- ----------
9999             JBR-001NODE1     JCT-26           2215.000000 0.010000   0.000000   0.000000   0.000000   0.000000  
; Splitted conduit
CDT-13           PRV-003NODE1     MOK-001NODE2     516.065920 0.010000   0.000000   0.000000   0.000000   0.000000  
; Splitted conduit
CDT-15           PRV-004NODE1     PRV-003NODE1     5.789485   0.010000   0.000000   0.000000   0.000000   0.000000  
; Splitted conduit
CDT-19           SMG-008NODEA     SMG-008NODE1     816.153472 0.010000   0.000000   0.000000   0.000000   0.000000  
; Splitted conduit
CDT-21           SMG-003NODE2A    SMG-001NODE1     318.643853 0.010000   0.000000   0.000000   0.000000   0.000000  
; Splitted conduit
CDT-23           SMG-006NODE1A    SMG-002NODE1     1819.649491 0.010000   0.000000   0.000000   0.000000   0.000000  
; Splitted conduit
CDT-25           SMG-005NODEA     SMG-002NODE2     1769.308604 0.010000   0.000000   0.000000   0.000000   0.000000  
; Splitted conduit
CDT-27           MOK-017NODE1     MOK-012NODE1     471.634388 0.010000   0.000000   0.000000   0.000000   0.000000  
; New Conduit
CDT-29           MOK-022NODE_A    MOK-022NODE_B    49.000000  0.013000   0.000000   0.100000   0.000000   0.000000  
; New Conduit
CDT-31           MOK-022NODE_B    WW_MOK-022       10.000000  0.013000   0.000000   8.925000   0.000000   0.000000  
; Splitted conduit
CDT-33           SMG-006NODE1A_1  SMG-006NODE1     2867.000000 0.010000   0.000000   0.000000   0.000000   0.000000  
; Splitted conduit
CDT-35           MOK-009NODE1A_A  MOK-009NODE1     286.105140 0.010000   0.000000   0.500000   0.000000   0.000000  
; New Conduit
CDT-37           MOK-008NODE1     MOK-008NODE1A    507.000000 0.010000   0.000000   0.000000   0.000000   0.000000  
; Splitted conduit
CDT-39           SM-684A1         SM-684           838.000000 0.010000   0.000000   6.460000   0.000000   0.000000  
; Splitted conduit
CDT-41           JCT-14           MOK-002NODE1     1284.000000 0.010000   0.000000   0.000000   0.000000   0.000000  
; Splitted conduit
CDT-43           JCT-16           SM-493           171.000000 0.010000   0.000000   0.000000   0.000000   0.000000  
; Splitted conduit
CDT-45           JCT-18           PRV-001NODE1     1050.000000 0.010000   0.000000   0.000000   0.000000   0.000000  
; Splitted conduit
CDT-47           JCT-20           SM-469           11298.000000 0.010000   0.000000   4.050000   0.000000   0.000000  
; Splitted conduit
CDT-51           JCT-24           JBR-001NODE1     11548.000000 0.010000   0.000000   0.000000   0.000000   0.000000  
; Splitted conduit
CDT-53           JCT-26           JCT-30           4355.000000 0.010000   0.000000   0.000000   0.000000   0.000000  
; Splitted conduit
CDT-55           JCT-28           MOK-022NODE_B    1359.000000 0.010000   0.000000   0.450000   0.000000   0.000000  
; Splitted conduit
CDT-57           JCT-30           JCT-32           30.000000  0.010000   0.000000   0.000000   0.000000   0.000000  
; Splitted conduit
CDT-59           JCT-32           OUTFALL-001      180.500000 0.010000   0.000000   0.000000   0.000000   0.000000  
MCPS-001FM       MCPS-001NODE     JCT-20           449.000000 0.010000   0.000000   0.000000   0.000000   0.000000  
MOK-011FM        MOK-011NODE      MOK-016NODE1     2165.255959 0.010000   0.000000   0.000000   0.000000   0.000000  
MOK-013FM        MOK-013NODE      MOK-019NODE1     189.153439 0.010000   0.000000   0.000000   0.000000   0.000000  
MOK-019NODE1-MOK-019NODE1A MOK-019NODE1     MOK-019NODE1A    639.596569 0.010000   0.000000   0.000000   0.000000   0.000000  
MOK-019NODE1A-MOK-019NODE2 MOK-019NODE1A    MOK-019NODE2     378.322745 0.010000   0.000000   0.000000   0.000000   0.000000  
MOK-021FM        MOK-021NODE      SM-424           127.401750 0.010000   0.000000   7.500000   0.000000   0.000000  
MOK-022NODE2_PRV-006NODE1 MOK-022NODE2     PRV-006NODE1     16714.872378 0.010000   0.000000   0.000000   0.000000   0.000000  
PRV-001NODE1_JBR-001NODE1 PRV-001NODE1     JCT-24           4598.000000 0.010000   0.000000   0.000000   0.000000   0.000000  
PRV-003FM        PRV-003NODE      PRV-003NODE1     116.921315 0.010000   0.000000   0.000000   0.000000   0.000000  
PRV-004FM        PRV-004NODE      PRV-004NODE1     144.328721 0.010000   0.000000   0.000000   0.000000   0.000000  
PRV-005FM        PRV-005NODE      MOK-008NODE1     456.588500 0.010000   0.000000   0.000000   0.000000   0.000000  
PRV-006FM        PRV-006NODE      PRV-006NODE1     492.000063 0.010000   0.000000   0.000000   0.000000   0.000000  
PRV-006NODE1_PRV-001NODE1 PRV-006NODE1     PRV-001NODE1     2800.168330 0.010000   0.000000   0.000000   0.000000   0.000000  
PRV-007FM        PRV-007NODE      SMG-008NODEA     18.361933  0.010000   0.000000   0.000000   0.000000   0.000000  
; Gravity
SGM-1191         SM-546           WW_MOK-011       94.292469  0.013000   0.000000   6.000000   0.000000   0.000000  
; Gravity
SGM-1200         SM-607           WW_MOK-013       204.337074 0.013000   0.000000   3.000000   0.000000   0.000000  
; Gravity
SGM-1201         SM-580           WW_MOK-006       93.650575  0.013000   0.000000   5.500000   0.000000   0.000000  
SGM-1208         SM-535           SM-533           192.310094 0.013000   0.000000   0.000000   0.000000   0.000000  
SGM-1209         SM-533           SM-532           119.678472 0.013000   0.000000   0.000000   0.000000   0.000000  
SGM-1210         SM-532           SM-530           304.171346 0.013000   0.000000   0.000000   0.000000   0.000000  
SGM-1211         SM-530           SM-529           264.733290 0.013000   0.000000   0.000000   0.000000   0.000000  
SGM-1212         SM-529           SM-526           279.533129 0.013000   0.000000   0.000000   0.000000   0.000000  
SGM-1213         SM-526           SM-525           440.175733 0.013000   0.000000   0.000000   0.000000   0.000000  
SGM-1214         SM-525           SM-524           346.994989 0.013000   0.000000   0.000000   0.000000   0.000000  
SGM-1215         SM-524           SM-522           453.709992 0.013000   0.000000   0.000000   0.000000   0.000000  
; Gravity
SGM-1224         SM-536           WW_MOK-018       302.849493 0.013000   0.000000   4.660000   0.000000   0.000000  
SGM-1236         MOK-019NODE3     SM-604           122.000000 0.013000   0.000000   0.000000   0.000000   0.000000  
SGM-1237         SM-604           SM-600           259.999879 0.013000   0.000000   0.000000   0.000000   0.000000  
SGM-1238         SM-600           SM-599           272.768953 0.013000   0.000000   0.000000   0.000000   0.000000  
SGM-1239         SM-599           SM-594           306.651739 0.013000   0.000000   0.000000   0.000000   0.000000  
SGM-1240         SM-594           SM-593           277.683422 0.013000   0.000000   0.000000   0.000000   0.000000  
SGM-1241         SM-593           SM-581           260.716923 0.013000   0.000000   0.000000   0.000000   0.000000  
SGM-1242         SM-581           SM-580           128.014992 0.013000   0.000000   0.000000   0.000000   0.000000  
SGM-1273         SM-555           SM-554           233.706698 0.013000   0.000000   0.000000   0.000000   0.000000  
SGM-1276         SM-551           SM-552           119.143579 0.013000   0.000000   0.000000   0.000000   0.000000  
SGM-1277         SM-569           SM-551           212.558619 0.013000   0.000000   0.000000   0.000000   0.000000  
SGM-1286         SM-424           SM-423           267.190334 0.013000   0.000000   0.000000   0.000000   0.000000  
SGM-1287         SM-423           SM-422           318.864812 0.013000   0.000000   0.000000   0.000000   0.000000  
SGM-1288         SM-422           SM-421           376.963518 0.013000   0.000000   0.000000   0.000000   0.000000  
SGM-1289         SM-421           SM-413           192.586708 0.013000   0.000000   0.000000   0.000000   0.000000  
SGM-1290         SM-413           SM-405           261.130651 0.013000   0.000000   0.000000   0.000000   0.000000  
SGM-1291         SM-405           SM-406           259.794973 0.013000   0.000000   0.000000   0.000000   0.000000  
SGM-1292         SM-406           SM-407           259.047055 0.013000   0.000000   0.000000   0.000000   0.000000  
SGM-1293         SM-407           SM-569           263.225753 0.013000   0.000000   0.000000   0.000000   0.000000  
SGM-1333         SM-554           SM-610           259.812834 0.013000   0.000000   0.000000   0.000000   0.000000  
SGM-1334         SM-552           SM-555           260.123201 0.013000   0.000000   0.000000   0.000000   0.000000  
; Gravity
SGM-1345         SM-511           WW_MOK-005       105.342776 0.013000   0.000000   5.000000   0.000000   0.000000  
; Gravity
SGM-1347         SM-396           WW_MOK-001       33.685282  0.013000   0.000000   4.800000   0.000000   0.000000  
SGM-1371         SM-510           SM-511           240.172105 0.013000   0.000000   0.000000   0.000000   0.000000  
SGM-1372         SM-522           SM-510           199.716307 0.013000   0.000000   0.000000   0.000000   0.000000  
SGM-1375         SM-746           SM-745           298.309562 0.013000   0.000000   0.000000   0.000000   0.000000  
SGM-1376         SM-745           SM-743           371.215023 0.013000   0.000000   0.000000   0.000000   0.000000  
SGM-1377         SM-743           SM-742           296.454126 0.013000   0.000000   0.000000   0.000000   0.000000  
SGM-1378         SM-742           SM-478           291.376896 0.013000   0.000000   0.000000   0.000000   0.000000  