[TITLE]
;;Project Title/Notes

[OPTIONS]
;;Option             Value
FLOW_UNITS           LPS
INFILTRATION         HORTON
FLOW_ROUTING         DYNWAVE
LINK_OFFSETS         DEPTH
MIN_SLOPE            0
ALLOW_PONDING        NO
SKIP_STEADY_STATE    NO

START_DATE           06/01/2009
START_TIME           00:00:00
REPORT_START_DATE    06/01/2009
REPORT_START_TIME    00:00:00
END_DATE             06/05/2009
END_TIME             23:55:00
SWEEP_START          01/01
SWEEP_END            12/31
DRY_DAYS             5.000000
REPORT_STEP          00:05:00
WET_STEP             01:00:00
DRY_STEP             23:00:00
ROUTING_STEP         0:00:10 

INERTIAL_DAMPING     PARTIAL
NORMAL_FLOW_LIMITED  SLOPE
FORCE_MAIN_EQUATION  D-W
VARIABLE_STEP        0.75
LENGTHENING_STEP     10
MIN_SURFAREA         1.14
MAX_TRIALS           8
HEAD_TOLERANCE       0.001
SYS_FLOW_TOL         5
LAT_FLOW_TOL         5
MINIMUM_STEP         0
THREADS              1

[EVAPORATION]
;;Data Source    Parameters
;;-------------- ----------------
CONSTANT         0.000000
DRY_ONLY         NO

[RAINGAGES]
;;Name           Format    Interval SCF      Source    
;;-------------- --------- ------ ------ ----------
; Raingage
BANGALOW_GAUGE   VOLUME    0.083333 1.000000 TIMESERIES BANGALOW_1-2-1  

[JUNCTIONS]
;;Name           Elevation  MaxDepth   InitDepth  SurDepth   Aponded   
;;-------------- ---------- ---------- ---------- ---------- ----------
; CD/2
N1               45.320000  0.980000   0.000000   0.000000   0.000000  
; CA/1
N10              43.140385  1.000000   0.000000   0.000000   0.000000  
; AE/3
N100             57.747408  0.976000   0.000000   0.000000   0.000000  
; AE/10
N101             61.807344  1.128000   0.000000   0.000000   0.000000  
; AG/1
N102             64.145160  1.503000   0.000000   0.000000   0.000000  
; B/12
N103             45.064680  3.185000   0.000000   0.000000   0.000000  
; S/3
N104             40.355520  0.707000   0.000000   0.000000   0.000000  
; ENA/6
N105             44.850000  2.988000   0.000000   0.000000   0.000000  
; V/4
N106             43.138344  1.924000   0.000000   0.000000   0.000000  
; VA/5
N107             42.302000  2.222200   0.000000   0.000000   0.000000  
; END/3
N108             54.117000  1.658000   0.000000   0.000000   0.000000  
; V/6
N109             47.189136  1.228000   0.000000   0.000000   0.000000  
; EJ/7
N11              42.617000  2.555000   0.000000   0.000000   0.000000  
; V/7
N110             49.063656  1.027000   0.000000   0.000000   0.000000  
; AE/11
N111             65.897760  0.935000   0.000000   0.000000   0.000000  
; T/7
N112             53.877546  2.222200   0.000000   0.000000   0.000000  
; B/11
N113             48.984408  1.003000   0.000000   0.000000   0.000000  
; S/4
N114             40.730424  1.640000   0.000000   0.000000   0.000000  
; K/3
N115             52.242720  0.823000   0.000000   0.000000   0.000000  
; ENA/7
N116             45.090000  1.661000   0.000000   0.000000   0.000000  
; AE/2
N117             57.241440  2.902000   0.000000   0.000000   0.000000  
; AE/1
N118             56.686704  1.006000   0.000000   0.000000   0.000000  
; EA/8
N119             56.250000  1.700000   0.000000   0.000000   0.000000  
; EJ/6
N12              41.669000  1.155000   0.000000   0.000000   0.000000  
; K/1
N120             49.203864  1.725000   0.000000   0.000000   0.000000  
; T/7A
N121             54.946577  2.222200   0.000000   0.000000   0.000000  
; ENA/8
N122             45.495000  1.661000   0.000000   0.000000   0.000000  
; T/7B
N123             56.780000  1.500000   0.000000   0.000000   0.000000  
; V/8
N124             54.376320  1.113000   0.000000   0.000000   0.000000  
; AG/2
N125             66.556128  1.064000   0.000000   0.000000   0.000000  
; K/2
N126             49.511712  1.963000   0.000000   0.000000   0.000000  
; S/5
N127             41.059608  2.475000   0.000000   0.000000   0.000000  
; B/10
N128             46.265592  1.402000   0.000000   0.000000   0.000000  
; EA/9
N129             56.470000  1.100000   0.000000   0.000000   0.000000  
; EK/1
N13              44.168000  2.179000   0.000000   0.000000   0.000000  
; END/2
N130             50.820000  1.439000   0.000000   0.000000   0.000000  
; EA/10
N131             59.730000  1.410000   0.000000   0.000000   0.000000  
; ENA/10
N132             48.167000  2.396000   0.000000   0.000000   0.000000  
; SA/1
N133             41.229488  2.222200   0.000000   0.000000   0.000000  
; ENA/14
N134             52.010000  1.106000   0.000000   0.000000   0.000000  
; END/1
N135             49.392000  1.576000   0.000000   0.000000   0.000000  
; ENA/15
N136             54.540000  1.602000   0.000000   0.000000   0.000000  
; S/6
N137             42.083736  2.545000   0.000000   0.000000   0.000000  
; T/8
N138             58.153669  2.222200   0.000000   0.000000   0.000000  
; ENA/9
N139             45.992000  2.333000   0.000000   0.000000   0.000000  
; EJ/5
N14              41.506000  1.856000   0.000000   0.000000   0.000000  
; ENA/16
N140             55.635000  1.058000   0.000000   0.000000   0.000000  
; EA/11
N141             60.750000  1.080000   0.000000   0.000000   0.000000  
; ENA/17
N142             59.690000  1.699000   0.000000   0.000000   0.000000  
; SA/2
N143             41.558658  2.222200   0.000000   0.000000   0.000000  
; ENA/13
N144             50.826000  2.022000   0.000000   0.000000   0.000000  
; ENA/12
N145             49.080000  2.988000   0.000000   0.000000   0.000000  
; ENA/11
N146             49.040000  1.572000   0.000000   0.000000   0.000000  
; ENB/1
N147             46.380000  1.932000   0.000000   0.000000   0.000000  
; V/9
N148             55.686960  1.603000   0.000000   1000.000000 0.000000  
; BO/2
N149             42.450000  2.222200   0.000000   0.000000   0.000000  
; EB/6
N15              49.760000  2.740000   0.000000   0.000000   0.000000  
; B/9
N150             44.461852  1.500000   0.000000   0.000000   0.000000  
; S/7
N151             47.048928  1.664000   0.000000   0.000000   0.000000  
; ENC/1
N152             50.240000  1.595000   0.000000   0.000000   0.000000  
; SA/4
N153             42.110814  2.222200   0.000000   0.000000   0.000000  
; S/8
N154             49.045368  0.921000   0.000000   0.000000   0.000000  
; BO/1
N155             42.050000  2.222200   0.000000   0.000000   0.000000  
; SA/3
N156             41.919683  2.222200   0.000000   0.000000   0.000000  
; B/8
N157             44.202000  1.536000   0.000000   0.000000   0.000000  
; S/9
N158             49.194720  1.697000   0.000000   0.000000   0.000000  
; W/1
N159             42.266942  2.222000   0.000000   1000.000000 0.000000  
; EL/1
N16              46.858000  1.086000   0.000000   0.000000   0.000000  
; ENC/2
N160             51.660000  1.391000   0.000000   0.000000   0.000000  
; EA/12
N161             64.040000  1.450000   0.000000   0.000000   0.000000  
; ENC/4
N162             54.711000  1.070000   0.000000   0.000000   0.000000  
; T/9
N163             62.124353  2.222200   0.000000   0.000000   0.000000  
; B/7
N164             43.818048  0.704000   0.000000   0.000000   0.000000  
; ENC/3
N165             53.276000  1.062000   0.000000   0.000000   0.000000  
; T/10
N166             64.262414  2.222200   0.000000   0.000000   0.000000  
; BM/2
N167             41.600000  2.222200   0.000000   0.000000   0.000000  
; BM/3
N168             42.060000  2.222200   0.000000   0.000000   0.000000  
; Y/1
N169             51.350523  2.222200   0.000000   0.000000   0.000000  
; EL/2
N17              50.627000  1.406000   0.000000   0.000000   0.000000  
; S/10
N170             52.724304  3.423000   0.000000   0.000000   0.000000  
; S/11
N171             53.041296  4.719000   0.000000   0.000000   0.000000  
; B/6
N172             43.647360  0.973000   0.000000   0.000000   0.000000  
; W/2
N173             43.013376  1.726000   0.000000   0.000000   0.000000  
; P/1
N174             42.632376  1.031000   0.000000   0.000000   0.000000  
; A/9
N175             43.080432  1.692000   0.000000   0.000000   0.000000  
; BA/3
N176             43.240000  0.960000   0.000000   0.000000   0.000000  
; A/12
N177             52.748688  1.158000   0.000000   0.000000   0.000000  
; Y/2
N178             52.437456  2.222200   0.000000   0.000000   0.000000  
; A/8
N179             42.428160  1.606000   0.000000   0.000000   0.000000  
; EL/3
N18              53.500000  1.278000   0.000000   0.000000   0.000000  
; A/11
N180             50.532792  1.158000   0.000000   0.000000   0.000000  
; A/7
N181             42.144696  1.908000   0.000000   0.000000   0.000000  
; A/6
N182             41.644824  0.667000   0.000000   0.000000   0.000000  
; A/10
N183             45.854112  1.478000   0.000000   0.000000   0.000000  
; BM/1
N184             41.180000  3.270000   0.000000   0.000000   0.000000  
; S/12
N185             53.717952  4.551000   0.000000   0.000000   0.000000  
; AL/1
N186             42.016680  2.328000   0.000000   0.000000   0.000000  
; L/9
N187             54.528000  1.432000   0.000000   0.000000   0.000000  
; BA/4
N188             47.300000  1.240000   0.000000   0.000000   0.000000  
; A/5
N189             41.306496  2.603000   0.000000   0.000000   0.000000  
; EL/4
N19              53.665000  1.269000   0.000000   0.000000   0.000000  
; W/3
N190             46.994064  1.381000   0.000000   0.000000   0.000000  
; BA/2
N191             41.300000  3.150000   0.000000   0.000000   0.000000  
; BA/5
N192             52.040000  1.600000   0.000000   0.000000   0.000000  
; A/4
N193             40.980360  3.621000   0.000000   0.000000   0.000000  
; L/8
N194             52.470000  1.195000   0.000000   0.000000   0.000000  
; HB/5
N195             59.200000  1.453000   0.000000   0.000000   0.000000  
; A/3
N196             40.748712  4.849000   0.000000   0.000000   0.000000  
; BA/6
N197             58.160000  1.800000   0.000000   0.000000   0.000000  
; B/5
N198             42.946320  1.613000   0.000000   0.000000   0.000000  
; L/7
N199             50.398000  0.929000   0.000000   0.000000   0.000000  
; CA/7
N2               46.550000  1.290000   0.000000   0.000000   0.000000  
; EB/4
N20              46.423000  2.237000   0.000000   0.000000   0.000000  
; L/1
N200             43.007280  1.988000   0.000000   0.000000   0.000000  
; BA/7
N201             63.080000  2.390000   0.000000   0.000000   0.000000  
; L/6
N202             49.989000  1.067000   0.000000   0.000000   0.000000  
; BB/1
N203             41.670000  1.500000   0.000000   0.000000   0.000000  
; A/2
N204             40.437816  5.434000   0.000000   0.000000   0.000000  
; L/5
N205             48.514000  1.158000   0.000000   0.000000   0.000000  
; S/13
N206             54.153816  1.707000   0.000000   0.000000   0.000000  
; A/1
N207             39.995760  2.222200   0.000000   0.000000   0.000000  
; HB/4
N208             57.470000  1.430000   0.000000   0.000000   0.000000  
; AT/1
N209             44.655249  2.222200   0.000000   0.000000   0.000000  
; EB/5
N21              48.820000  1.060000   0.000000   0.000000   0.000000  
; W/4
N210             50.343816  2.752000   0.000000   0.000000   0.000000  
; W/5
N211             59.652408  1.217000   0.000000   0.000000   0.000000  
; W/6
N212             63.185040  1.049000   0.000000   0.000000   0.000000  
; J/1
N213             43.541000  1.045000   0.000000   0.000000   0.000000  
; L/4
N214             45.131000  2.222200   0.000000   0.000000   0.000000  
; HB/3
N215             49.983000  1.078000   0.000000   0.000000   0.000000  
; B/4
N216             42.483024  1.960000   0.000000   0.000000   0.000000  
; S/14
N217             56.994552  4.078000   0.000000   0.000000   0.000000  
; L/3
N218             43.927776  1.256000   0.000000   0.000000   0.000000  
; L/2
N219             43.455336  1.671000   0.000000   0.000000   0.000000  
; EJ/4
N22              41.220000  3.747000   0.000000   0.000000   0.000000  
; HD/3
N220             60.450000  1.403000   0.000000   0.000000   0.000000  
; B/1
N221             40.011000  5.741000   0.000000   0.000000   0.000000  
; AA/1
N222             54.714648  1.347000   0.000000   0.000000   0.000000  
; BE/1
N223             46.060000  1.020000   0.000000   0.000000   0.000000  
; AI/1
N224             50.898552  2.191000   0.000000   0.000000   0.000000  
; BA/8
N225             64.300000  1.200000   0.000000   0.000000   0.000000  
; HB/6
N226             63.220000  1.041000   0.000000   0.000000   0.000000  
; C/5
N227             45.351192  1.296000   0.000000   0.000000   0.000000  
; BC/5
N228             52.600000  2.370000   0.000000   0.000000   0.000000  
; HD/2
N229             57.200000  1.527000   0.000000   0.000000   0.000000  
; EB/3
N23              45.800000  1.600000   0.000000   0.000000   0.000000  
; BB/2
N230             42.230000  1.700000   0.000000   0.000000   0.000000  
; BC/6
N231             53.110000  2.110000   0.000000   0.000000   0.000000  
; B/2
N232             41.522904  3.182000   0.000000   0.000000   0.000000  
; BC/4
N233             49.350000  1.110000   0.000000   0.000000   0.000000  
; BC/7
N234             57.980000  1.000000   0.000000   0.000000   0.000000  
; BC/1
N235             44.670000  1.720000   0.000000   0.000000   0.000000  
; HB/2
N236             49.360000  1.492000   0.000000   0.000000   0.000000  
; HD/4
N237             61.400000  1.384000   0.000000   0.000000   0.000000  
; C/6
N238             46.455000  0.954000   0.000000   0.000000   0.000000  
; D/1
N239             44.890944  1.509000   0.000000   0.000000   0.000000  
; EL/5
N24              55.100000  1.346000   0.000000   1000.000000 0.000000  
; B/3
N240             41.949624  2.560000   0.000000   0.000000   0.000000  
; W/7
N241             65.022984  2.222000   0.000000   0.000000   0.000000  
; BA/9
N242             65.000000  1.200000   0.000000   0.000000   0.000000  
; S/15
N243             59.667648  3.484000   0.000000   0.000000   0.000000  
; N/1
N244             51.056000  1.027000   0.000000   0.000000   0.000000  
; BC/2
N245             45.030000  1.440000   0.000000   0.000000   0.000000  
; BC/3
N246             48.940000  1.430000   0.000000   0.000000   0.000000  
; J/2
N247             44.291104  1.000000   0.000000   0.000000   0.000000  
; HD/1
N248             56.400000  1.975000   0.000000   0.000000   0.000000  
; BC/8
N249             64.100000  1.000000   0.000000   0.000000   0.000000  
; ED/1
N25              53.865000  1.775000   0.000000   0.000000   0.000000  
; AA/2
N250             55.284624  2.682000   0.000000   0.000000   0.000000  
; C/1
N251             41.440608  0.987000   0.000000   0.000000   0.000000  
; BB/3
N252             42.870000  1.220000   0.000000   0.000000   0.000000  
; BF/1
N253             45.580000  1.320000   0.000000   0.000000   0.000000  
; S/16
N254             62.663832  4.413000   0.000000   0.000000   0.000000  
; C/2
N255             41.766744  2.170000   0.000000   0.000000   0.000000  
; C/4
N256             43.839384  1.012000   0.000000   0.000000   0.000000  
; M/1
N257             46.549056  1.585000   0.000000   0.000000   0.000000  
; H/1
N258             42.714672  1.530000   0.000000   0.000000   0.000000  
; BC/9
N259             68.070000  1.130000   0.000000   0.000000   0.000000  
; EB/2
N26              45.255000  1.085000   0.000000   0.000000   0.000000  
; HC/4
N260             60.240000  1.422000   0.000000   0.000000   0.000000  
; BD/1
N261             52.030000  2.000000   0.000000   0.000000   0.000000  
; C/3
N262             42.739056  1.920000   0.000000   0.000000   0.000000  
; HC/5
N263             60.580000  1.721000   0.000000   0.000000   0.000000  
; HC/2
N264             54.820000  1.920000   0.000000   0.000000   0.000000  
; BF/2
N265             47.200000  2.200000   0.000000   0.000000   0.000000  
; BJ/2
N266             51.438710  2.222200   0.000000   0.000000   0.000000  
; HC/1
N267             49.360000  2.213000   0.000000   0.000000   0.000000  
; AAA/1
N268             56.140000  1.090000   0.000000   0.000000   0.000000  
; HB/1
N269             48.670000  1.932000   0.000000   0.000000   0.000000  
; EI/1
N27              44.120000  2.732000   0.000000   0.000000   0.000000  
; BB/4
N270             43.450000  0.840000   0.000000   0.000000   0.000000  
; BJ/1
N271             47.880000  0.900000   0.000000   0.000000   0.000000  
; AA/3
N272             56.061864  1.103000   0.000000   0.000000   0.000000  
; M/2
N273             48.780192  1.317000   0.000000   0.000000   0.000000  
; W/8
N274             67.159632  1.097000   0.000000   0.000000   0.000000  
; BH/1
N275             43.940000  2.570000   0.000000   0.000000   0.000000  
; BG/1
N276             44.780000  0.670000   0.000000   0.000000   0.000000  
; HA/1
N277             43.756000  2.244000   0.000000   0.000000   0.000000  
; H/2
N278             43.486000  1.487000   0.000000   0.000000   0.000000  
; BH/6
N279             60.710000  0.960000   0.000000   0.000000   0.000000  
; EJ/3
N28              41.079000  1.575000   0.000000   0.000000   0.000000  
; S/17
N280             63.694056  1.311000   0.000000   0.000000   0.000000  
; HC/3
N281             55.290000  1.063000   0.000000   0.000000   0.000000  
; HA/12
N282             56.520000  1.237000   0.000000   0.000000   0.000000  
; BH/5A
N283             57.690000  2.199000   0.000000   0.000000   0.000000  
; HG/1
N284             51.840000  1.558000   0.000000   0.000000   0.000000  
; HA/2
N285             44.566000  2.434000   0.000000   0.000000   0.000000  
; AAA/2
N286             58.395000  1.695000   0.000000   0.000000   0.000000  
; AC/1
N287             68.919410  2.222200   0.000000   0.000000   0.000000  
; BH/2
N288             46.930000  1.680000   0.000000   0.000000   0.000000  
; HA/11
N289             55.720000  1.823000   0.000000   0.000000   0.000000  
; EB/1
N29              44.980000  1.310000   0.000000   0.000000   0.000000  
; BH/5
N290             54.430000  1.340000   0.000000   0.000000   0.000000  
; HA/4
N291             44.767100  3.233000   0.000000   0.000000   0.000000  
; HA/3
N292             44.756000  2.744000   0.000000   0.000000   0.000000  
; HE/1
N293             53.970000  1.530000   0.000000   0.000000   0.000000  
; BH/3
N294             50.570000  1.660000   0.000000   0.000000   0.000000  
; HA/5
N295             47.430000  3.267000   0.000000   0.000000   0.000000  
; H/3
N296             43.918632  1.082000   0.000000   0.000000   0.000000  
; AAA/3
N297             58.770000  1.060000   0.000000   1000.000000 0.000000  
; W/9
N298             69.509640  1.344000   0.000000   0.000000   0.000000  
; BH/4A
N299             51.873000  1.627000   0.000000   0.000000   0.000000  
; CA/6
N3               45.609479  1.000000   0.000000   0.000000   0.000000  
; EI/2
N30              49.130000  1.171000   0.000000   0.000000   0.000000  
; HA/6
N300             47.510000  3.464000   0.000000   0.000000   0.000000  
; BK/1
N301             47.390000  0.960000   0.000000   0.000000   0.000000  
; BH/7
N302             63.450000  0.900000   0.000000   0.000000   0.000000  
; S/18
N303             67.818000  1.131000   0.000000   0.000000   0.000000  
; BH/4
N304             51.610000  1.090000   0.000000   0.000000   0.000000  
; BL/1
N305             57.150000  0.900000   0.000000   0.000000   0.000000  
; HF/1
N306             49.940000  1.894000   0.000000   0.000000   0.000000  
; HA/10
N307             51.200000  1.264000   0.000000   0.000000   0.000000  
; DH/1
N308             56.460000  1.450000   0.000000   0.000000   0.000000  
; H/4
N309             46.494192  2.951000   0.000000   0.000000   0.000000  
; EI/3
N31              49.900000  1.284000   0.000000   0.000000   0.000000  
; W/10
N310             75.087480  1.979000   0.000000   0.000000   0.000000  
; HA/9
N311             49.400000  1.324000   0.000000   0.000000   0.000000  
; HA/7
N312             48.230000  3.607000   0.000000   0.000000   0.000000  
; H/5
N313             48.542000  1.158000   0.000000   0.000000   0.000000  
; S/19
N314             72.612504  1.240000   0.000000   0.000000   0.000000  
; DG/1
N315             54.760000  1.900000   0.000000   0.000000   0.000000  
; DG/2
N316             55.160000  2.810000   0.000000   0.000000   0.000000  
; DA/2
N317             49.930000  2.350000   0.000000   0.000000   0.000000  
; H/6
N318             48.723000  3.191000   0.000000   0.000000   0.000000  
; HA/8
N319             48.755000  1.219000   0.000000   0.000000   0.000000  
; EC/1
N32              47.640000  2.440000   0.000000   0.000000   0.000000  
; DG/3
N320             57.500000  1.500000   0.000000   0.000000   0.000000  
; W/11
N321             79.107792  1.164000   0.000000   0.000000   0.000000  
; DA/3
N322             50.210000  2.700000   0.000000   0.000000   0.000000  
; S/20
N323             72.908160  2.012000   0.000000   0.000000   0.000000  
; DG/4
N324             57.724000  2.606000   0.000000   0.000000   0.000000  
; DG/5
N325             61.980000  2.050000   0.000000   0.000000   0.000000  
; DG/6
N326             63.385000  2.155000   0.000000   0.000000   0.000000  
; DJ/1
N327             57.945000  2.515000   0.000000   0.000000   0.000000  
; DA/4
N328             50.545000  2.795000   0.000000   0.000000   0.000000  
; DJ/2
N329             62.600000  1.670000   0.000000   0.000000   0.000000  
; EIA/1
N33              44.812000  1.216000   0.000000   0.000000   0.000000  
; DJ/3
N330             65.145000  1.855000   0.000000   0.000000   0.000000  
; S/21
N331             73.755504  1.932000   0.000000   0.000000   0.000000  
; DJ/4
N332             65.830000  1.950000   0.000000   0.000000   0.000000  
; DA/5
N333             50.840000  2.630000   0.000000   0.000000   0.000000  
; DB/1
N334             54.630000  2.620000   0.000000   0.000000   0.000000  
; DA/6
N335             50.980000  2.100000   0.000000   0.000000   0.000000  
; DB/2
N336             55.915000  2.135000   0.000000   0.000000   0.000000  
; DB/3
N337             57.845000  0.950000   0.000000   0.000000   0.000000  
; S/22
N338             76.078080  1.402000   0.000000   0.000000   0.000000  
; DD/2
N339             58.455000  1.270000   0.000000   0.000000   0.000000  
; EIA/2
N34              46.357000  1.812000   0.000000   0.000000   0.000000  
; DD/1
N340             58.116000  1.820000   0.000000   0.000000   0.000000  
; DA/7
N341             51.350000  0.700000   0.000000   0.000000   0.000000  
; DB/4
N342             59.775000  1.455000   0.000000   0.000000   0.000000  
; DD/3
N343             60.195000  1.040000   0.000000   0.000000   0.000000  
; DB/5
N344             62.440000  1.390000   0.000000   0.000000   0.000000  
; DA/8
N345             51.720000  2.210000   0.000000   0.000000   0.000000  
; DE/1
N346             63.545000  1.580000   0.000000   0.000000   0.000000  
; DB/6
N347             64.290000  1.290000   0.000000   0.000000   0.000000  
; DE/2
N348             64.435000  1.540000   0.000000   0.000000   0.000000  
; DK/1
N349             56.430000  1.220000   0.000000   0.000000   0.000000  
; EI/4
N35              50.300000  1.235000   0.000000   0.000000   0.000000  
; DB/7
N350             66.865000  1.615000   0.000000   0.000000   0.000000  
; DA/9
N351             52.180000  2.100000   0.000000   0.000000   0.000000  
; DB/8
N352             68.250000  1.220000   0.000000   0.000000   0.000000  
; DK/2
N353             57.440000  1.110000   0.000000   0.000000   0.000000  
; DB/9
N354             69.340000  1.100000   0.000000   0.000000   0.000000  
; DM/2
N355             62.970000  1.190000   0.000000   0.000000   0.000000  
; DK/3
N356             57.870000  1.710000   0.000000   0.000000   0.000000  
; DA/10
N357             52.730000  1.600000   0.000000   0.000000   0.000000  
; DM/1
N358             62.570000  1.290000   0.000000   0.000000   0.000000  
; DM/3
N359             68.200000  1.000000   0.000000   0.000000   0.000000  
; EJ/2
N36              40.840000  2.554000   0.000000   0.000000   0.000000  
; DM/4
N360             70.690000  0.890000   0.000000   0.000000   0.000000  
; DM/5
N361             71.350000  0.890000   0.000000   0.000000   0.000000  
; DK/4
N362             60.310000  1.620000   0.000000   0.000000   0.000000  
; DN/1
N363             68.790000  1.330000   0.000000   0.000000   0.000000  
; DA/11
N364             53.320000  1.180000   0.000000   0.000000   0.000000  
; DM/6
N365             71.240000  1.230000   0.000000   0.000000   0.000000  
; DO/1
N366             64.960000  2.730000   0.000000   0.000000   0.000000  
; DK/5
N367             61.880000  1.830000   0.000000   0.000000   0.000000  
; DO/2
N368             68.450000  1.360000   0.000000   0.000000   0.000000  
; DA/12
N369             55.240000  1.250000   0.000000   0.000000   0.000000  
; EIA/3
N37              46.640000  2.081000   0.000000   0.000000   0.000000  
; DO/3
N370             70.080000  1.160000   0.000000   0.000000   0.000000  
; DO/6
N371             77.180000  1.920000   0.000000   0.000000   0.000000  
; DO/5
N372             76.970000  1.210000   0.000000   0.000000   0.000000  
; DA/13
N373             55.670000  0.950000   0.000000   0.000000   0.000000  
; DK/6
N374             63.740000  2.060000   0.000000   0.000000   0.000000  
; DO/4
N375             75.020000  1.250000   0.000000   0.000000   0.000000  
; DP/1
N376             75.560000  1.340000   0.000000   0.000000   0.000000  
; DK/7
N377             67.640000  2.840000   0.000000   0.000000   0.000000  
; DA/14
N378             59.450000  1.240000   0.000000   0.000000   0.000000  
; DK/8
N379             71.050000  3.440000   0.000000   0.000000   0.000000  
; EJ/1
N38              40.830000  2.700000   0.000000   0.000000   0.000000  
; DA/15
N380             62.860000  1.610000   0.000000   0.000000   0.000000  
; Dead End
N381             70.600000  1.900000   0.000000   0.000000   0.000000  
; Dead End
N382             61.341000  1.067000   0.000000   0.000000   0.000000  
; Dead End
N383             45.351092  2.222200   0.000000   0.000000   0.000000  
; Dead End
N384             51.015900  2.222200   0.000000   0.000000   0.000000  
; Dead End
N385             46.116240  0.924000   0.000000   0.000000   0.000000  
; Dead End
N386             46.300000  0.900000   0.000000   0.000000   0.000000  
; Dead End
N387             55.528464  0.939000   0.000000   0.000000   0.000000  
; Dead End
N388             57.500000  1.250000   0.000000   0.000000   0.000000  
; Dead End
N389             55.750000  2.050000   0.000000   0.000000   0.000000  
; EM/1
N39              41.500000  3.152000   0.000000   0.000000   0.000000  
; Dead End
N390             63.200000  2.170000   0.000000   0.000000   0.000000  
; Dead End
N391             74.300000  1.780000   0.000000   0.000000   0.000000  
; Dead End
N392             83.360000  2.040000   0.000000   0.000000   0.000000  
; Dead End
N393             79.300000  1.900000   0.000000   0.000000   0.000000  
; Dead End
N394             52.055781  2.222200   0.000000   0.000000   0.000000  
; Dead End
N395             50.400000  2.151000   0.000000   0.000000   0.000000  
; Dead End
N396             57.950000  1.020000   0.000000   0.000000   0.000000  
; Dead End
N397             68.235000  1.600000   0.000000   0.000000   0.000000  
; Dead End
N398             60.322000  2.222200   0.000000   0.000000   0.000000  
; Dead End
N399             76.992480  0.915000   0.000000   0.000000   0.000000  
; CA/5
N4               45.315000  1.000000   0.000000   0.000000   0.000000  
; EC/5
N40              52.015000  2.090000   0.000000   0.000000   0.000000  
; Dead End
N400             64.162000  1.198000   0.000000   0.000000   0.000000  
; Dead End
N401             69.584000  1.326000   0.000000   0.000000   0.000000  
; Dead End
N402             57.670000  1.790000   0.000000   0.000000   0.000000  
; Dead End
N403             65.581000  1.149000   0.000000   0.000000   0.000000  
; Dead End
N404             72.998245  2.222200   0.000000   0.000000   0.000000  
; Dead End
N405             79.958184  0.942000   0.000000   0.000000   0.000000  
; Dead End
N406             48.923000  3.077000   0.000000   0.000000   0.000000  
; Dead End
N407             59.740000  0.920000   0.000000   0.000000   0.000000  
; Dead End
N408             48.670000  0.900000   0.000000   0.000000   0.000000  
; Dead End
N409             72.286368  0.945000   0.000000   0.000000   0.000000  
; EC/2
N41              48.240000  1.385000   0.000000   0.000000   0.000000  
; Dead End
N410             56.454000  0.666000   0.000000   0.000000   0.000000  
; Dead End
N411             54.595776  0.914000   0.000000   0.000000   0.000000  
; Dead End
N412             42.799616  2.222200   0.000000   0.000000   0.000000  
; Dead End
N413             47.646336  1.076000   0.000000   0.000000   0.000000  
; Dead End
N414             42.540000  2.222200   0.000000   0.000000   0.000000  
; Dead End
N415             42.790000  2.222200   0.000000   0.000000   0.000000  
; Dead End
N416             42.690000  2.222200   0.000000   0.000000   0.000000  
; Dead End
N417             58.850000  1.010000   0.000000   0.000000   0.000000  
; Dead End
N418             56.335714  2.222200   0.000000   0.000000   0.000000  
; Dead End
N419             58.545984  0.945000   0.000000   0.000000   0.000000  
; EIA/4
N42              47.601000  1.511000   0.000000   0.000000   0.000000  
; Dead End
N420             57.817512  2.222200   0.000000   0.000000   0.000000  
; Dead End
N421             46.644036  2.222200   0.000000   0.000000   0.000000  
; Dead End