[TITLE]
;;Project Title/Notes
Scenario Run :  BASE
Scenario Run :  BASE
Scenario Run :  BASE

[OPTIONS]
;;Option             Value
FLOW_UNITS           CFS
INFILTRATION         GREEN_AMPT
FLOW_ROUTING         DYNWAVE
LINK_OFFSETS         DEPTH
MIN_SLOPE            0
ALLOW_PONDING        YES
SKIP_STEADY_STATE    NO

START_DATE           03/22/2011
START_TIME           00:00:00
REPORT_START_DATE    03/22/2011
REPORT_START_TIME    00:00:00
END_DATE             03/25/2011
END_TIME             00:00:00
SWEEP_START          1/1
SWEEP_END            1/1
DRY_DAYS             0.000000
REPORT_STEP          00:15:00
WET_STEP             00:06:00
DRY_STEP             01:00:00
ROUTING_STEP         0:00:01 

INERTIAL_DAMPING     PARTIAL
NORMAL_FLOW_LIMITED  BOTH
FORCE_MAIN_EQUATION  H-W
VARIABLE_STEP        0.75
LENGTHENING_STEP     15
MIN_SURFAREA         0
MAX_TRIALS           8
HEAD_TOLERANCE       0.005000
SYS_FLOW_TOL         5
LAT_FLOW_TOL         5
MINIMUM_STEP         0.500000
THREADS              1

[EVAPORATION]
;;Data Source    Parameters
;;-------------- ----------------
CONSTANT         0.000000
DRY_ONLY         NO

[RAINGAGES]
;;Name           Format    Interval SCF      Source    
;;-------------- --------- ------ ------ ----------
15469_10_YR_2HR  CUMULATIVE 0.083333 1.000000 TIMESERIES 10_YR_2HR       

[JUNCTIONS]
;;Name           Elevation  MaxDepth   InitDepth  SurDepth   Aponded   
;;-------------- ---------- ---------- ---------- ---------- ----------
14THPUMP_JUNCTION 3.000000   10.000000  0.000000   100000.000000 0.000000  
15THPUMP_JUNCTION 1.900000   10.000000  0.000000   100000.000000 0.000000  
16THPUMP_JUNCTION 11.000000  10.000000  0.000000   100000.000000 0.000000  
2                3.580000   9.300000   0.000000   0.000000   0.000000  
AA1              394.750000 8.450000   0.000000   0.000000   0.000000  
AA10             391.550000 1.150000   0.000000   0.000000   0.000000  
AA11             385.000000 6.000000   0.000000   0.000000   0.000000  
AA12             381.900000 2.800000   0.000000   0.000000   0.000000  
AA13             397.400000 3.600000   0.000000   0.000000   0.000000  
AA14             353.500000 3.900000   0.000000   0.000000   0.000000  
AA15             345.050000 5.350000   0.000000   0.000000   0.000000  
AA16             342.000000 8.000000   0.000000   0.000000   0.000000  
AA17             387.950000 6.050000   0.000000   0.000000   0.000000  
AA18             381.410000 8.590000   0.000000   0.000000   0.000000  
AA19             384.120000 4.990000   0.000000   0.000000   0.000000  
AA2              396.300000 6.700000   0.000000   0.000000   0.000000  
AA20             379.020000 9.380000   0.000000   0.000000   0.000000  
AA21             398.100000 6.400000   0.000000   0.000000   0.000000  
AA22             375.740000 4.260000   0.000000   0.000000   0.000000  
AA23             362.000000 4.400000   0.000000   0.000000   0.000000  
AA24             333.000000 7.000000   0.000000   0.000000   0.000000  
AA25             299.500000 5.900000   0.000000   0.000000   0.000000  
AA26             291.710000 7.290000   0.000000   0.000000   0.000000  
AA27             308.600000 5.100000   0.000000   0.000000   0.000000  
AA28             376.500000 5.000000   0.000000   0.000000   0.000000  
AA29             383.100000 7.100000   0.000000   0.000000   0.000000  
AA3              395.800000 4.400000   0.000000   0.000000   0.000000  
AA30             384.800000 6.900000   0.000000   0.000000   0.000000  
AA31             385.800000 9.200000   0.000000   0.000000   0.000000  
AA32             390.700000 7.900000   0.000000   0.000000   0.000000  
AA33             395.500000 6.000000   0.000000   0.000000   0.000000  
AA34             392.100000 6.600000   0.000000   0.000000   0.000000  
AA35             387.000000 5.000000   0.000000   0.000000   0.000000  
AA36             301.200000 8.100000   0.000000   0.000000   0.000000  
AA37             394.400000 5.000000   0.000000   0.000000   0.000000  
AA4              393.200000 5.000000   0.000000   0.000000   0.000000  
AA5              389.000000 4.000000   0.000000   0.000000   0.000000  
AA6              388.770000 5.030000   0.000000   0.000000   0.000000  
AA7              369.000000 5.200000   0.000000   0.000000   0.000000  
AA9              393.200000 6.100000   0.000000   0.000000   0.000000  
AB1              286.930000 6.470000   0.000000   0.000000   0.000000  
AB10             248.680000 10.000000  0.000000   0.000000   0.000000  
AB100            143.650000 8.980000   0.000000   0.000000   0.000000  
AB101            141.840000 5.800000   0.000000   0.000000   0.000000  
AB102            201.000000 9.250000   0.000000   0.000000   0.000000  
AB103            205.500000 6.200000   0.000000   0.000000   0.000000  
AB104            214.500000 6.700000   0.000000   0.000000   0.000000  
AB105            203.000000 10.500000  0.000000   0.000000   0.000000  
AB106            137.440000 7.500000   0.000000   0.000000   0.000000  
AB107            135.040000 9.810000   0.000000   0.000000   0.000000  
AB108            260.530000 17.290000  0.000000   0.000000   0.000000  
AB11             255.900000 10.800000  0.000000   0.000000   0.000000  
AB110            229.260000 7.260000   0.000000   0.000000   0.000000  
AB111            237.720000 7.460000   0.000000   0.000000   0.000000  
AB112            238.330000 6.170000   0.000000   0.000000   0.000000  
AB113            240.300000 7.290000   0.000000   0.000000   0.000000  
AB114            183.670000 7.080000   0.000000   0.000000   0.000000  
AB115            240.500000 6.880000   0.000000   0.000000   0.000000  
AB116            166.270000 10.130000  0.000000   0.000000   0.000000  
AB117            188.480000 5.560000   0.000000   0.000000   0.000000  
AB12             219.000000 4.800000   0.000000   0.000000   0.000000  
AB120            158.180000 17.240000  0.000000   0.000000   0.000000  
AB121            159.250000 5.910000   0.000000   0.000000   0.000000  
AB122            159.440000 6.130000   0.000000   0.000000   0.000000  
AB123            160.430000 8.450000   0.000000   0.000000   0.000000  
AB124            164.390000 6.550000   0.000000   0.000000   0.000000  
AB125            167.900000 5.570000   0.000000   0.000000   0.000000  
AB126            172.500000 6.200000   0.000000   0.000000   0.000000  
AB127            162.380000 5.850000   0.000000   0.000000   0.000000  
AB128            163.310000 5.940000   0.000000   0.000000   0.000000  
AB129            161.970000 7.980000   0.000000   0.000000   0.000000  
AB13             218.800000 5.000000   0.000000   100.000000 0.000000  
AB130            161.110000 5.540000   0.000000   0.000000   0.000000  
AB131            162.590000 5.150000   0.000000   0.000000   0.000000  
AB132            163.810000 5.800000   0.000000   0.000000   0.000000  
AB133            213.310000 8.980000   0.000000   0.000000   0.000000  
AB134            194.090000 6.570000   0.000000   0.000000   0.000000  
AB135            183.010000 6.050000   0.000000   0.000000   0.000000  
AB14             231.600000 8.000000   0.000000   0.000000   0.000000  
AB140            198.390000 7.570000   0.000000   0.000000   0.000000  
AB141            207.690000 16.560000  0.000000   0.000000   0.000000  
AB142            231.480000 8.250000   0.000000   0.000000   0.000000  
AB143            209.000000 12.820000  0.000000   0.000000   0.000000  
AB144            210.490000 8.500000   0.000000   0.000000   0.000000  
AB145            165.700000 5.300000   0.000000   0.000000   0.000000  
AB15             195.800000 7.300000   0.000000   0.000000   0.000000  
AB16             238.400000 8.200000   0.000000   0.000000   0.000000  
AB17             260.550000 12.230000  0.000000   0.000000   0.000000  
AB18             259.000000 15.800000  0.000000   0.000000   0.000000  
AB19             255.920000 13.800000  0.000000   0.000000   0.000000  
AB2              264.640000 4.960000   0.000000   0.000000   0.000000  
AB20             316.100000 7.700000   0.000000   0.000000   0.000000  
AB21             173.610000 13.460000  0.000000   0.000000   0.000000  
AB22             172.440000 10.360000  0.000000   0.000000   0.000000  
AB23             171.780000 9.370000   0.000000   0.000000   0.000000  
AB24             176.700000 14.500000  0.000000   0.000000   0.000000  
AB25             171.750000 9.750000   0.000000   0.000000   0.000000  
AB26             171.580000 8.030000   0.000000   0.000000   0.000000  
AB27             228.550000 6.140000   0.000000   0.000000   0.000000  
AB28             215.800000 6.000000   0.000000   0.000000   0.000000  
AB29             224.000000 5.000000   0.000000   0.000000   0.000000  
AB3              255.980000 5.020000   0.000000   0.000000   0.000000  
AB30             204.000000 6.700000   0.000000   0.000000   0.000000  
AB31             204.600000 14.500000  0.000000   0.000000   0.000000  
AB32             204.330000 7.900000   0.000000   0.000000   0.000000  
AB33             205.250000 5.800000   0.000000   0.000000   0.000000  
AB34             253.070000 15.720000  0.000000   0.000000   0.000000  
AB35             183.000000 7.300000   0.000000   0.000000   0.000000  
AB35D            219.070000 11.500000  0.000000   0.000000   0.000000  
AB36             251.940000 16.800000  0.000000   0.000000   0.000000  
AB37             250.650000 16.000000  0.000000   0.000000   0.000000  
AB38             245.200000 11.300000  0.000000   0.000000   0.000000  
AB39             295.640000 6.500000   0.000000   0.000000   0.000000  
AB4              235.850000 5.750000   0.000000   0.000000   0.000000  
AB40             295.150000 4.000000   0.000000   0.000000   0.000000  
AB41             283.620000 6.500000   0.000000   0.000000   0.000000  
AB42             171.300000 8.000000   0.000000   0.000000   0.000000  
AB43             175.500000 7.800000   0.000000   0.000000   0.000000  
AB44             170.430000 6.770000   0.000000   0.000000   0.000000  
AB45             170.580000 6.600000   0.000000   0.000000   0.000000  
AB46             191.440000 8.000000   0.000000   0.000000   0.000000  
AB47             174.000000 9.800000   0.000000   0.000000   0.000000  
AB48             170.000000 6.110000   0.000000   0.000000   0.000000  
AB49             190.000000 10.000000  0.000000   0.000000   0.000000  
AB5              289.280000 5.000000   0.000000   0.000000   0.000000  
AB50             209.580000 7.800000   0.000000   0.000000   0.000000  
AB51             234.700000 8.200000   0.000000   0.000000   0.000000  
AB52             254.100000 13.600000  0.000000   0.000000   0.000000  
AB53             238.760000 6.000000   0.000000   0.000000   0.000000  
AB54             283.720000 6.500000   0.000000   0.000000   0.000000  
AB55             263.000000 6.920000   0.000000   0.000000   0.000000  
AB56             261.180000 8.400000   0.000000   0.000000   0.000000  
AB57             259.350000 8.500000   0.000000   0.000000   0.000000  
AB58             250.180000 14.400000  0.000000   0.000000   0.000000  
AB59             167.710000 7.800000   0.000000   0.000000   0.000000  
AB6              297.600000 5.000000   0.000000   0.000000   0.000000  
AB60             166.770000 9.000000   0.000000   0.000000   0.000000  
AB62             165.700000 10.800000  0.000000   0.000000   0.000000  
AB64             164.130000 13.600000  0.000000   0.000000   0.000000  
AB65             191.760000 7.900000   0.000000   0.000000   0.000000  
AB66             223.400000 7.000000   0.000000   0.000000   0.000000  
AB67             163.230000 15.000000  0.000000   0.000000   0.000000  
AB69             162.420000 15.810000  0.000000   0.000000   0.000000  
AB7              304.220000 3.900000   0.000000   0.000000   0.000000  
AB70             200.000000 7.300000   0.000000   0.000000   0.000000  
AB71             230.000000 7.500000   0.000000   0.000000   0.000000  
AB72             161.270000 20.500000  0.000000   0.000000   0.000000  
AB73             160.140000 20.600000  0.000000   0.000000   0.000000  
AB74             185.660000 11.500000  0.000000   0.000000   0.000000  
AB75             207.830000 7.000000   0.000000   0.000000   0.000000  
AB76             221.780000 6.000000   0.000000   0.000000   0.000000  
AB77             226.100000 6.800000   0.000000   0.000000   0.000000  
AB78             187.710000 15.000000  0.000000   0.000000   0.000000  
AB79             237.800000 6.000000   0.000000   0.000000   0.000000  
AB8              249.500000 7.500000   0.000000   0.000000   0.000000  
AB80             234.100000 13.000000  0.000000   0.000000   0.000000  
AB81             235.000000 5.800000   0.000000   0.000000   0.000000  
AB82             237.140000 14.200000  0.000000   0.000000   0.000000  
AB83             229.840000 8.000000   0.000000   0.000000   0.000000  
AB84             240.890000 7.000000   0.000000   0.000000   0.000000  
AB85             258.840000 6.800000   0.000000   0.000000   0.000000  
AB86             158.650000 18.300000  0.000000   0.000000   0.000000  
AB87             189.560000 11.500000  0.000000   0.000000   0.000000  
AB88             197.330000 6.000000   0.000000   0.000000   0.000000  
AB89             219.380000 14.000000  0.000000   0.000000   0.000000  
AB90             237.080000 6.000000   0.000000   0.000000   0.000000  
AB91             206.060000 9.800000   0.000000   0.000000   0.000000  
AB92             156.920000 19.500000  0.000000   0.000000   0.000000  
AB93             184.530000 6.800000   0.000000   0.000000   0.000000  
AB94             197.550000 8.600000   0.000000   0.000000   0.000000  
AB95             155.180000 16.000000  0.000000   0.000000   0.000000  
AB96             161.180000 6.000000   0.000000   0.000000   0.000000  
AB97             172.090000 7.800000   0.000000   0.000000   0.000000  
AB98             153.800000 8.000000   0.000000   0.000000   0.000000  
AB99             152.270000 9.000000   0.000000   0.000000   0.000000  
AC1              129.200000 7.800000   0.000000   0.000000   0.000000  
AC10             168.550000 3.650000   0.000000   0.000000   0.000000  
AC100            121.830000 5.700000   0.000000   0.000000   0.000000  
AC101            135.000000 6.140000   0.000000   0.000000   0.000000  
AC102            140.000000 5.950000   0.000000   0.000000   0.000000  
AC103            144.720000 5.660000   0.000000   0.000000   0.000000  
AC104            153.610000 5.760000   0.000000   0.000000   0.000000  
AC105            158.370000 7.750000   0.000000   0.000000   0.000000  
AC106            164.720000 10.340000  0.000000   0.000000   0.000000  
AC107            181.780000 8.000000   0.000000   0.000000   0.000000  
AC108            184.870000 7.000000   0.000000   0.000000   0.000000  
AC109            187.470000 7.760000   0.000000   0.000000   0.000000  
AC11             190.590000 8.210000   0.000000   0.000000   0.000000  
AC110            188.400000 9.440000   0.000000   0.000000   0.000000  
AC111            189.060000 12.180000  0.000000   0.000000   0.000000  
AC112            189.550000 14.130000  0.000000   0.000000   0.000000  
AC113            201.610000 7.230000   0.000000   0.000000   0.000000  
AC114            204.160000 8.340000   0.000000   0.000000   0.000000  
AC115            215.030000 12.460000  0.000000   0.000000   0.000000  
AC116            222.640000 11.450000  0.000000   0.000000   0.000000  
AC117            239.200000 6.400000   0.000000   0.000000   0.000000  
AC118            243.560000 6.090000   0.000000   0.000000   0.000000  
AC119            248.480000 6.670000   0.000000   0.000000   0.000000  
AC12             204.810000 7.190000   0.000000   0.000000   0.000000  
AC120            231.000000 13.410000  0.000000   0.000000   0.000000  
AC121            223.940000 5.730000   0.000000   0.000000   0.000000  
AC122            196.080000 8.220000   0.000000   0.000000   0.000000  
AC123            195.230000 7.890000   0.000000   0.000000   0.000000  
AC124            193.420000 17.980000  0.000000   0.000000   0.000000  
AC125            191.570000 21.520000  0.000000   0.000000   0.000000  
AC126            190.950000 21.490000  0.000000   0.000000   0.000000  
AC127            190.330000 16.020000  0.000000   0.000000   0.000000  
AC128            259.510000 10.020000  0.000000   0.000000   0.000000  
AC129            89.930000  3.870000   0.000000   0.000000   0.000000  
AC13             218.450000 7.150000   0.000000   0.000000   0.000000  
AC130            180.530000 9.680000   0.000000   0.000000   0.000000  
AC131            181.800000 4.280000   0.000000   0.000000   0.000000  
AC132            182.450000 6.320000   0.000000   0.000000   0.000000  
AC133            182.870000 4.710000   0.000000   0.000000   0.000000  
AC134            127.970000 7.900000   0.000000   0.000000   0.000000  
AC135            133.970000 8.230000   0.000000   0.000000   0.000000  
AC136            172.590000 7.410000   0.000000   0.000000   0.000000  
AC137            182.050000 7.650000   0.000000   0.000000   0.000000  
AC138            101.780000 7.390000   0.000000   0.000000   0.000000  
AC139            106.340000 8.000000   0.000000   0.000000   0.000000  
AC14             239.750000 6.850000   0.000000   0.000000   0.000000  
AC140            110.100000 8.240000   0.000000   0.000000   0.000000  
AC141            114.690000 8.000000   0.000000   0.000000   0.000000  
AC142            118.380000 6.450000   0.000000   0.000000   0.000000  
AC143            121.970000 8.000000   0.000000   0.000000   0.000000  
AC144            124.690000 8.000000   0.000000   0.000000   0.000000  
AC145            128.520000 6.170000   0.000000   0.000000   0.000000  
AC146            121.110000 6.390000   0.000000   0.000000   0.000000  
AC147            121.380000 6.320000   0.000000   0.000000   0.000000  
AC148            121.710000 6.690000   0.000000   0.000000   0.000000  
AC149            122.660000 7.540000   0.000000   0.000000   0.000000  
AC15             258.230000 4.770000   0.000000   0.000000   0.000000  
AC150            123.660000 7.340000   0.000000   0.000000   0.000000  
AC151            124.150000 7.450000   0.000000   0.000000   0.000000  
AC152            124.500000 8.100000   0.000000   0.000000   0.000000  
AC153            125.370000 8.830000   0.000000   0.000000   0.000000  
AC154            125.500000 9.000000   0.000000   0.000000   0.000000  
AC155            126.500000 4.400000   0.000000   0.000000   0.000000  
AC156            127.100000 4.300000   0.000000   0.000000   0.000000  
AC157            130.820000 5.480000   0.000000   0.000000   0.000000  
AC158            132.080000 7.920000   0.000000   0.000000   0.000000  
AC159            135.780000 15.220000  0.000000   0.000000   0.000000  
AC16             247.130000 8.370000   0.000000   0.000000   0.000000  
AC160            137.230000 13.770000  0.000000   0.000000   0.000000  
AC161            138.350000 11.550000  0.000000   0.000000   0.000000  
AC162            139.980000 9.720000   0.000000   0.000000   0.000000  
AC163            141.380000 8.220000   0.000000   0.000000   0.000000  
AC164            143.490000 9.910000   0.000000   0.000000   0.000000  
AC165            144.530000 9.070000   0.000000   0.000000   0.000000  
AC166            146.640000 10.060000  0.000000   0.000000   0.000000  
AC167            151.640000 11.460000  0.000000   0.000000   0.000000  
AC168            155.090000 13.610000  0.000000   0.000000   0.000000  
AC169            135.000000 15.000000  0.000000   0.000000   0.000000  
AC17             186.500000 9.000000   0.000000   0.000000   0.000000  
AC170            170.000000 10.000000  0.000000   0.000000   0.000000  
AC171            193.020000 10.460000  0.000000   0.000000   0.000000  
AC172            179.120000 10.510000  0.000000   0.000000   0.000000  
AC173            171.900000 6.190000   0.000000   0.000000   0.000000  
AC174            157.580000 6.950000   0.000000   0.000000   0.000000  
AC175            141.470000 6.890000   0.000000   0.000000   0.000000  
AC176            126.470000 5.370000   0.000000   0.000000   0.000000  
AC177            125.430000 5.450000   0.000000   0.000000   0.000000  
AC179            129.510000 10.550000  0.000000   0.000000   0.000000  
AC18             185.900000 11.100000  0.000000   0.000000   0.000000  
AC180            129.960000 10.090000  0.000000   0.000000   0.000000  
AC181            132.280000 10.440000  0.000000   0.000000   0.000000  
AC182            133.710000 10.780000  0.000000   0.000000   0.000000  
AC183            137.620000 9.910000   0.000000   0.000000   0.000000  
AC184            139.490000 8.650000   0.000000   0.000000   0.000000  
AC185            140.170000 8.970000   0.000000   0.000000   0.000000  
AC186            141.560000 8.479000   0.000000   0.000000   0.000000  
AC19             189.000000 5.300000   0.000000   0.000000   0.000000  
AC2              126.460000 12.740000  0.000000   0.000000   0.000000  
AC20             183.730000 9.130000   0.000000   0.000000   0.000000  
AC21             177.500000 6.000000   0.000000   0.000000   0.000000  
AC22             147.410000 5.390000   0.000000   0.000000   0.000000  
AC23             129.390000 5.410000   0.000000   0.000000   0.000000  
AC230            93.500000  9.060000   0.000000   0.000000   0.000000  
AC231            94.280000  8.320000   0.000000   0.000000   0.000000  
AC24             155.490000 6.310000   0.000000   0.000000   0.000000  
AC25             168.510000 6.290000   0.000000   0.000000   0.000000  
AC26             137.100000 18.900000  0.000000   0.000000   0.000000  
AC27             113.070000 6.760000   0.000000   0.000000   0.000000  
AC28             115.470000 5.030000   0.000000   0.000000   0.000000  
AC29             100.360000 6.180000   0.000000   0.000000   0.000000  
AC3              126.070000 10.530000  0.000000   0.000000   0.000000  
AC30             92.050000  12.850000  0.000000   0.000000   0.000000  
AC31             104.100000 6.400000   0.000000   0.000000   0.000000  
AC32             105.070000 5.130000   0.000000   0.000000   0.000000  
AC33             97.500000  8.880000   0.000000   0.000000   0.000000  
AC34             91.910000  14.530000  0.000000   0.000000   0.000000  
AC35             91.750000  14.350000  0.000000   0.000000   0.000000  
AC36             99.000000  8.200000   0.000000   0.000000   0.000000  
AC38             90.040000  10.940000  0.000000   0.000000   0.000000  
AC39             89.320000  8.280000   0.000000   0.000000   0.000000  
AC4              122.350000 11.250000  0.000000   0.000000   0.000000  
AC40             122.330000 2.170000   0.000000   0.000000   0.000000  
AC41             118.800000 11.800000  0.000000   0.000000   0.000000  
AC42             118.500000 11.300000  0.000000   0.000000   0.000000  
AC43             88.160000  5.850000   0.000000   0.000000   0.000000  
AC44             87.160000  7.500000   0.000000   0.000000   0.000000  
AC45             79.500000  6.370000   0.000000   0.000000   0.000000  
AC46             70.600000  9.900000   0.000000   0.000000   0.000000  
AC47             66.930000  8.000000   0.000000   0.000000   0.000000  
AC48             59.800000  17.200000  0.000000   0.000000   0.000000  
AC49             58.300000  6.700000   0.000000   0.000000   0.000000  
AC5              118.500000 11.500000  0.000000   0.000000   0.000000  
AC50             87.990000  5.110000   0.000000   0.000000   0.000000  
AC51             92.800000  5.700000   0.000000   0.000000   0.000000  
AC52             94.340000  9.760000   0.000000   0.000000   0.000000  
AC53             96.090000  4.410000   0.000000   0.000000   0.000000  
AC54             100.590000 4.910000   0.000000   0.000000   0.000000  
AC55             105.330000 6.770000   0.000000   0.000000   0.000000  
AC56             108.560000 6.040000   0.000000   0.000000   0.000000  
AC57             112.710000 5.190000   0.000000   0.000000   0.000000  
AC58             115.530000 6.070000   0.000000   0.000000   0.000000  
AC59             117.190000 5.210000   0.000000   0.000000   0.000000  
AC6              118.900000 14.900000  0.000000   0.000000   0.000000  
AC60             117.920000 7.180000   0.000000   0.000000   0.000000  
AC61             120.250000 11.950000  0.000000   0.000000   0.000000  
AC62             119.460000 14.540000  0.000000   0.000000   0.000000  
AC63             122.410000 9.590000   0.000000   0.000000   0.000000  
AC64             126.720000 9.280000   0.000000   0.000000   0.000000  
AC65             124.810000 9.690000   0.000000   0.000000   0.000000  
AC66             129.350000 9.650000   0.000000   0.000000   0.000000  
AC67             145.200000 5.000000   0.000000   0.000000   0.000000  
AC68             125.700000 5.500000   0.000000   0.000000   0.000000  
AC69             148.180000 7.220000   0.000000   0.000000   0.000000  
AC7              136.160000 6.640000   0.000000   0.000000   0.000000  
AC70             155.000000 5.900000   0.000000   0.000000   0.000000  
AC71             167.600000 5.800000   0.000000   0.000000   0.000000  
AC72             167.570000 6.830000   0.000000   0.000000   0.000000  
AC73             180.000000 6.700000   0.000000   0.000000   0.000000  
AC74             163.800000 6.000000   0.000000   0.000000   0.000000  
AC75             169.000000 5.400000   0.000000   0.000000   0.000000  
AC76             170.740000 5.560000   0.000000   0.000000   0.000000  
AC77             183.700000 15.300000  0.000000   0.000000   0.000000  
AC78             194.630000 5.170000   0.000000   0.000000   0.000000  
AC79             206.870000 6.030000   0.000000   0.000000   0.000000  
AC8              146.000000 7.500000   0.000000   0.000000   0.000000  
AC80             222.000000 5.400000   0.000000   0.000000   0.000000  
AC81             235.000000 6.300000   0.000000   0.000000   0.000000  
AC82             242.000000 5.500000   0.000000   0.000000   0.000000  
AC83             204.190000 6.310000   0.000000   0.000000   0.000000  
AC84             204.070000 5.330000   0.000000   0.000000   0.000000  
AC85             211.000000 5.400000   0.000000   0.000000   0.000000  
AC86             215.490000 7.610000   0.000000   0.000000   0.000000  
AC87             120.890000 10.110000  0.000000   0.000000   0.000000  
AC88             201.500000 9.500000   0.000000   0.000000   0.000000  
AC89             159.510000 5.490000   0.000000   0.000000   0.000000  
AC9              162.350000 6.650000   0.000000   0.000000   0.000000  
AC92             127.280000 11.410000  0.000000   0.000000   0.000000  
AC93             127.860000 12.840000  0.000000   0.000000   0.000000  
AC94             163.000000 7.500000   0.000000   0.000000   0.000000  
AC95             164.860000 4.840000   0.000000   0.000000   0.000000  
AC96             102.560000 8.280000   0.000000   0.000000   0.000000  
AC97             106.610000 4.950000   0.000000   0.000000   0.000000  
AC98             109.720000 5.400000   0.000000   0.000000   0.000000  
AC99             112.960000 5.830000   0.000000   0.000000   0.000000  
AD1              180.480000 5.520000   0.000000   0.000000   0.000000  
AD10             143.170000 5.830000   0.000000   0.000000   0.000000  
AD100            86.260000  5.740000   0.000000   0.000000   0.000000  
AD101            86.940000  5.760000   0.000000   0.000000   0.000000  
AD102            87.380000  8.120000   0.000000   0.000000   0.000000  
AD103            87.890000  8.910000   0.000000   0.000000   0.000000  
AD104            90.190000  8.210000   0.000000   0.000000   0.000000  
AD105            90.700000  10.100000  0.000000   0.000000   0.000000  
AD106            132.310000 5.590000   0.000000   0.000000   0.000000  
AD107            128.790000 9.490000   0.000000   0.000000   0.000000  
AD108            127.970000 11.270000  0.000000   0.000000   0.000000  
AD109            134.780000 5.720000   0.000000   0.000000   0.000000  
AD11             139.760000 6.240000   0.000000   0.000000   0.000000  
AD110            139.030000 5.270000   0.000000   0.000000   0.000000  
AD111            122.300000 7.700000   0.000000   0.000000   0.000000  
AD112            121.330000 5.670000   0.000000   0.000000   0.000000  
AD113            131.380000 5.820000   0.000000   0.000000   0.000000  
AD114            129.370000 9.700000   0.000000   0.000000   0.000000  
AD115            132.990000 4.910000   0.000000   0.000000   0.000000  
AD116            127.010000 13.740000  0.000000   0.000000   0.000000  
AD117            137.000000 5.500000   0.000000   0.000000   0.000000  
AD118            126.050000 16.750000  0.000000   0.000000   0.000000  
AD119            125.010000 18.950000  0.000000   0.000000   0.000000  
AD12             155.120000 5.280000   0.000000   0.000000   0.000000  
AD121            141.100000 4.900000   0.000000   0.000000   0.000000  
AD122            123.050000 8.550000   0.000000   0.000000   0.000000  
AD123            124.360000 7.140000   0.000000   0.000000   0.000000  
AD124            129.660000 5.740000   0.000000   0.000000   0.000000  
AD125            131.700000 5.600000   0.000000   0.000000   0.000000  
AD126            133.790000 5.910000   0.000000   0.000000   0.000000  
AD127            135.000000 5.000000   0.000000   0.000000   0.000000  
AD128            136.260000 6.240000   0.000000   0.000000   0.000000  
AD129            136.820000 5.780000   0.000000   0.000000   0.000000  
AD13             134.020000 5.480000   0.000000   0.000000   0.000000  
AD130            125.760000 6.240000   0.000000   0.000000   0.000000  
AD131            126.950000 8.650000   0.000000   0.000000   0.000000  