[TITLE]
;;Project Title/Notes

[OPTIONS]
;;Option             Value
FLOW_UNITS           LPS
INFILTRATION         HORTON
FLOW_ROUTING         DYNWAVE
LINK_OFFSETS         ELEVATION
MIN_SLOPE            0
ALLOW_PONDING        NO
SKIP_STEADY_STATE    NO

START_DATE           12/01/2009
START_TIME           00:00:00
REPORT_START_DATE    12/01/2009
REPORT_START_TIME    00:00:00
END_DATE             12/03/2009
END_TIME             00:00:00
SWEEP_START          01/01
SWEEP_END            12/31
DRY_DAYS             0
REPORT_STEP          00:01:00
WET_STEP             00:05:00
DRY_STEP             01:00:00
ROUTING_STEP         0:00:01 

INERTIAL_DAMPING     NONE
NORMAL_FLOW_LIMITED  BOTH
FORCE_MAIN_EQUATION  H-W
VARIABLE_STEP        0.75
LENGTHENING_STEP     0
MIN_SURFAREA         0
MAX_TRIALS           0
HEAD_TOLERANCE       0
SYS_FLOW_TOL         5
LAT_FLOW_TOL         5
MINIMUM_STEP         0.5
THREADS              1

[FILES]
;;Interfacing Files
USE HOTSTART "D:\2016PC\NovDec2009\aaa.HSF"

[EVAPORATION]
;;Data Source    Parameters
;;-------------- ----------------
CONSTANT         0.0
DRY_ONLY         NO

[JUNCTIONS]
;;Name           Elevation  MaxDepth   InitDepth  SurDepth   Aponded   
;;-------------- ---------- ---------- ---------- ---------- ----------
0005             339.57     4.06       0          0          0         
0010             339.93     3.65       0          0          0         
0015             340.12     3.53       0          0          0         
0020             340.21     3.24       0          0          0         
0025             340.38     3.14       0          0          0         
0030             340.55     3.01       0          0          0         
0035             341.41     1.79       0          0          0         
0040             340.68     2.87       0          0          0         
0045             340.89     2.96       0          0          0         
0050             340.96     2.94       0          0          0         
0055             341.03     2.94       0          0          0         
0060             341.12     2.82       0          0          0         
0065             341.32     2.46       0          0          0         
0070             341.45     2.33       0          0          0         
0075             341.63     2.17       0          0          0         
0080             341.92     2.24       0          0          0         
0085             342.04     2.15       0          0          0         
0090             342.19     2          0          0          0         
0095             342.41     1.67       0          0          0         
0100             342.57     1.55       0          0          0         
0105             342.75     1.49       0          0          0         
0110             342.84     1.54       0          0          0         
0115             342.97     1.57       0          0          0         
0120             343.1      1.7        0          0          0         
0125             344.32     1.84       0          0          0         
0130             345.47     1.86       0          0          0         
0135             346.72     1.99       0          0          0         
0140             350.39     1.57       0          0          0         
0145             355.01     1.6        0          0          0         
0150             357.6      3.48       0          0          0         
0155             360.8      1.53       0          0          0         
0160             361.34     1.65       0          0          0         
0165             362.02     1.59       0          0          0         
0170             369.82     2.13       0          0          0         
0175             363.17     1.75       0          0          0         
0180             357.81     2.59       0          0          0         
0185             357.97     1.49       0          0          0         
0190             358.66     1.54       0          0          0         
0195             360.18     1.57       0          0          0         
0210             371.64     3.61       0          0          0         
0205             369.42     1.56       0          0          0         
0200             366.74     1.64       0          0          0         
0215             380.45     1.98       0          0          0         
0225             372.88     2.4        0          0          0         
0230             382.21     2.31       0          0          0         
0235             385.48     1.53       0          0          0         
0240             374.04     1.87       0          0          0         
0245             378        1.55       0          0          0         
0250             389.57     2.21       0          0          0         
0255             390.96     2.09       0          0          0         
0260             399.93     1.97       0          0          0         
0265             404.45     2.07       0          0          0         
0270             393.74     1.74       0          0          0         
0275             394.15     2.21       0          0          0         
0280             392.84     1.53       0          0          0         
0285             399.11     1.66       0          0          0         
0295             391.77     1.39       0          0          0         
0300             383.69     1.51       0          0          0         
0290             376.23     3.55       0          0          0         
0305             395.74     2.46       0          0          0         
0310             401.63     2.92       0          0          0         
0315             400.71     2.26       0          0          0         
0320             403.14     1.61       0          0          0         
0325             411.92     1.5        0          0          0         
0400             358.52     1.03       0          0          0         
0405             359.09     1.96       0          0          0         
0410             365.01     1.58       0          0          0         
0415             375.47     1.5        0          0          0         
0445             373.76     1.99       0          0          0         
0440             368.89     1.81       0          0          0         
0430             360.55     1.85       0          0          0         
0435             360.97     2.16       0          0          0         
0425             359.85     4.12       0          0          0         
0420             359.67     4.77       0          0          0         
WW-ROBINSON      357.89     6.7        0.49       0          0         
0500             339.72     4.08       0          0          0         
0505             339.83     4.09       0          0          0         
0510             340.01     4.27       0          0          0         
0515             341.88     3.13       0          0          0         
0520             340.06     3.62       0          0          0         
0525             341.04     2.52       0          0          0         
0530             341.26     1.83       0          0          0         
0535             342.44     2.21       0          0          0         
0540             343.15     2          0          0          0         
0545             343.52     2.92       0          0          0         
0550             343.66     2.48       0          0          0         
0555             343.9      2.54       0          0          0         
0560             344.13     2.59       0          0          0         
0565             344.36     1.71       0          0          0         
0570             344.64     2.61       0          0          0         
0575             345.11     2.91       0          0          0         
0580             346.29     3.19       0          0          0         
0585             346.69     3.23       0          0          0         
0590             347.14     3.07       0          0          0         
0600             340.08     3.62       0          0          0         
0605             340.21     3.48       0          0          0         
0610             340.31     4.08       0          0          0         
0615             341.89     3.04       0          0          0         
0620             342.79     2.66       0          0          0         
0625             342.97     2.65       0          0          0         
0630             340.33     3.76       0          0          0         
0635             340.39     3.63       0          0          0         
0640             340.49     3.82       0          0          0         
0645             340.61     2.76       0          0          0         
0650             340.74     2.71       0          0          0         
0655             340.88     2.48       0          0          0         
0660             341.25     2.13       0          0          0         
0665             341.38     2.02       0          0          0         
0675             342.36     1.82       0          0          0         
0670             341.61     2.21       0          0          0         
0680             342.51     2.13       0          0          0         
0685             342.8      2.6        0          0          0         
0690             342.99     2.7        0          0          0         
0695             341.91     2.03       0          0          0         
0700             342.35     1.7        0          0          0         
0705             341.05     2.22       0          0          0         
0710             341.15     2.12       0          0          0         
0720             342.22     1.66       0          0          0         
0715             341.76     2.24       0          0          0         
0725             342.56     1.68       0          0          0         
0730             341.26     2.12       0          0          0         
0735             341.39     2.15       0          0          0         
0740             341.48     2.17       0          0          0         
0745             342.22     3.62       0          0          0         
0750             342.43     2.25       0          0          0         
0755             342.73     2.11       0          0          0         
0760             343.06     2.08       0          0          0         
0765             343.32     2.43       0          0          0         
0770             343.44     1.5        0          0          0         
0775             341.65     2.38       0          0          0         
0780             341.77     2.33       0          0          0         
0785             341.88     2.64       0          0          0         
0790             341.92     2.39       0          0          0         
0795             342.08     2.46       0          0          0         
0800             343.06     2.51       0          0          0         
0805             342.09     2.5        0          0          0         
0810             342.27     2.08       0          0          0         
0815             342.38     2.03       0          0          0         
0820             342.48     1.87       0          0          0         
0825             342.58     1.71       0          0          0         
0830             342.78     1.57       0          0          0         
0835             342.9      1.92       0          0          0         
0840             342.99     2.02       0          0          0         
0845             343.62     1.67       0          0          0         
0850             343.85     3.4        0          0          0         
0855             351.61     0.94       0          0          0         
0860             352.33     2.47       0          0          0         
0865             343.17     1.72       0          0          0         
0870             340.87     3.2        0          0          0         
0875             341.87     2.13       0          0          0         
0880             342.52     2.03       0          0          0         
0885             342.27     1.68       0          0          0         
0890             342.74     2          0          0          0         
0895             343.13     1.78       0          0          0         
WW-SIXTH         338.85     5.25       0          0          0         
0900             341.01     3.05       0          0          0         
0905             341.12     2.97       0          0          0         
0910             342.02     3.3        0          0          0         
0915             341.25     2.97       0          0          0         
0920             341.39     2.71       0          0          0         
0925             342.79     1.88       0          0          0         
0930             341.54     2.84       0          0          0         
0935             341.62     2.67       0          0          0         
0940             343.26     1.86       0          0          0         
0945             341.78     2.03       0          0          0         
0950             342.05     2.77       0          0          0         
0955             342.53     2.82       0          0          0         
0960             342        2.28       0          0          0         
0975             343.22     2.31       0          0          0         
0965             342.6      2.85       0          0          0         
0970             342.9      2.1        0          0          0         
0980             342.16     2.32       0          0          0         
0985             342.7      2.77       0          0          0         
0990             343.78     1.93       0          0          0         
0995             346.5      2.7        0          0          0         
1000             343.26     3.08       0          0          0         
1005             342.8      2.11       0          0          0         
1010             342.87     1.97       0          0          0         
1015             343.05     2.12       0          0          0         
1020             343.95     1.93       0          0          0         
1025             344.14     3.23       0          0          0         
1030             344.25     3.88       0          0          0         
1040             346.58     1.92       0          0          0         
1035             344.34     4.96       0          0          0         
1045             347.13     3.17       0          0          0         
1050             349.63     2.65       0          0          0         
1055             352.48     2.81       0          0          0         
1060             358.52     1.96       0          0          0         
1065             362.95     1.9        0          0          0         
1070             367.59     2.01       0          0          0         
1075             371.86     2.07       0          0          0         
1080             372.87     2.49       0          0          0         
1085             374.96     2.46       0          0          0         
1090             377.44     2.47       0          0          0         
1095             382.51     2.72       0          0          0         
1100             386.28     2.71       0          0          0         
1105             390.12     2.8        0          0          0         
1110             396.68     2.97       0          0          0         
1115             401.09     2.48       0          0          0         
1120             405.23     2.44       0          0          0         
1125             409.93     2.48       0          0          0         
1130             411.3      2.59       0          0          0         
1135             413.98     2.89       0          0          0         
1140             418.89     2.3        0          0          0         
1145             423.86     2.59       0          0          0         
1150             426.03     2.49       0          0          0         
1155             426.31     2.76       0          0          0         
1160             435.53     1.88       0          0          0         
1165             426.51     2.32       0          0          0         
1170             429.47     2.44       0          0          0         
1175             430.74     2.6        0          0          0         
1180             431.64     2.73       0          0          0         
1185             436.79     3.05       0          0          0         
1190             445.64     2.46       0          0          0         
1195             454.63     2.49       0          0          0         
1200             455.73     2.44       0          0          0         
1205             455.93     2.24       0          0          0         
1210             458.09     2.49       0          0          0         
1215             463.61     2.21       0          0          0         
1220             468.61     4.31       0          0          0         
1225             479.2      4.12       0          0          0         
1230             489.39     2.55       0          0          0         
1245             492.13     2          0          0          0         
1240             491.18     2          0          0          0         
1235             490.41     2          0          0          0         
1250             494.32     1.53       0          0          0         
1255             495.01     3.11       0          0          0         
1260             501.41     3.11       0          0          0         
1265             502.5      2.17       0          0          0         
1270             503.29     2.33       0          0          0         
1275             512.11     4.94       0          0          0         
1280             513.89     3.41       0          0          0         
1285             517.71     3.55       0          0          0         
1290             522.54     2.1        0          0          0         
1295             479.54     2.03       0          0          0         
1300             481.84     3.03       0          0          0         
1305             488.53     0.91       0          0          0         
1310             491.65     3.53       0          0          0         
1315             492.23     2.52       0          0          0         
1320             492.99     1.75       0          0          0         
1325             491.23     1.56       0          0          0         
1330             491.63     1.94       0          0          0         
1335             493.66     1.61       0          0          0         
1340             458.44     1.81       0          0          0         
1345             467.6      1.76       0          0          0         
1350             471.94     1.59       0          0          0         
1355             476.28     1.83       0          0          0         
1360             482.07     1.79       0          0          0         
1365             490.78     1.66       0          0          0         
1370             492.97     1.85       0          0          0         
1375             494.36     2.96       0          0          0         
1380             494        2.46       0          0          0         
1385             496.91     1.37       0          0          0         
1400             339.51     4.54       0          0          0         
1405             339.76     4.76       0          0          0         
1410             340.13     4.32       0          0          0         
1415             340.31     4.44       0          0          0         
1420             340.71     3.65       0          0          0         
1425             341.16     3.21       0          0          0         
1430             341.28     3.68       0          0          0         
1435             341.39     3.53       0          0          0         
1440             341.62     3.44       0          0          0         
1445             342.7      2.74       0          0          0         
1450             349.01     2.8        0          0          0         
1455             353.92     2.25       0          0          0         
1460             358.3      2.1        0          0          0         
1465             342.07     3.64       0          0          0         
1470             342.5      3          0          0          0         
1480             363.84     2.2        0          0          0         
1475             347.35     1.89       0          0          0         
1485             342.95     2.47       0          0          0         
1490             343.3      2.03       0          0          0         
1495             344.25     2.1        0          0          0         
1500             347.07     2.11       0          0          0         
1505             365.25     1.9        0          0          0         
1510             343.16     2.04       0          0          0         
1515             343.41     2.4        0          0          0         
1520             345.07     2.59       0          0          0         
1525             345.35     2.55       0          0          0         
1530             342.61     2.29       0          0          0         
1535             344.29     1.9        0          0          0         
1540             348.03     1.51       0          0          0         
1545             359.07     1.79       0          0          0         
1550             365.91     2.45       0          0          0         
1555             367.08     1.83       0          0          0         
1560             374.51     1.98       0          0          0         
1565             389.54     2.14       0          0          0         
1570             392.53     1.91       0          0          0         
1575             397.94     3.16       0          0          0         
1580             398.08     3.22       0          0          0         
1585             402.24     1.93       0          0          0         
1595             411.42     3.8        0          0          0         
1590             410.99     2.17       0          0          0         
1600             411.71     4.25       0          0          0         
1605             412.71     1.03       0          0          0         
1610             413.32     2.54       0          0          0         
1615             415.24     2.11       0          0          0         
1620             415.28     1.51       0          0          0         
1625             424.62     2.91       0          0          0         
1630             432        1.84       0          0          0         
1635             435.06     2.08       0          0          0         
1640             429.88     3.17       0          0          0         
1645             435.55     1.85       0          0          0         
1650             437.21     1.84       0          0          0         
1655             442.27     1.8        0          0          0         
1660             447.83     1.92       0          0          0         
1665             438.82     2.16       0          0          0         
1670             445.3      2.17       0          0          0         
1675             439.77     2.18       0          0          0         
1680             444.28     3.95       0          0          0         
1685             461.7      1.92       0          0          0         
1690             463.76     2.28       0          0          0         
1695             473.74     1.37       0          0          0         
1700             478.17     2.07       0          0          0         
1705             478.97     1.78       0          0          0         
1710             483.18     1.52       0          0          0         
1715             464.35     1.53       0          0          0         
1720             464.72     1.91       0          0          0         
1725             470.61     2.18       0          0          0         
1730             480.02     2.13       0          0          0         
1735             480.79     1.55       0          0          0         
1740             481.11     1.22       0          0          0         
1745             485.19     3.45       0          0          0         
1750             485.53     2.55       0          0          0         
1755             485.64     3.19       0          0          0         
1760             485.84     1.36       0          0          0         
1765             485.96     1.3        0          0          0         
1770             489.69     2.47       0          0          0         
1775             490.86     3.74       0          0          0         
1780             487.82     4.96       0          0          0         
1785             491.86     1.78       0          0          0         
1790             495.92     2.85       0          0          0         
1795             488.48     2.89       0          0          0         
1800             490.82     2.4        0          0          0         
1805             493.9      1.8        0          0          0         
1810             496.4      1.84       0          0          0         
1815             497.31     1.24       0          0          0         
1820             398.24     3.9        0          0          0         
1825             402.49     2.39       0          0          0         
1830             403.41     2.7        0          0          0         
1835             411.68     1.28       0          0          0         
1840             413.83     0.97       0          0          0         
1845             414.13     1.53       0          0          0         
1850             417.8      1.35       0          0          0         
1855             421.21     2.04       0          0          0         
1860             421.7      1.45       0          0          0         
1865             421.58     1.96       0          0          0         
1870             422.47     1.51       0          0          0         
1875             431.44     1.84       0          0          0         
1880             432.22     1.35       0          0          0         
1885             434.43     1.35       0          0          0         
1900             398.81     1.78       0          0          0         
1905             400.95     1.9        0          0          0         
1910             402.47     2.08       0          0          0         
1915             405.06     1.76       0          0          0         
1920             408.77     1.78       0          0          0         
1925             412.37     1.64       0          0          0         
1930             416.73     1.79       0          0          0         
1940             423.04     1.79       0          0          0         
1945             423.71     1.83       0          0          0         
1950             424.16     1.77       0          0          0         
1955             429.26     1.89       0          0          0         
1960             442.49     1.68       0          0          0         
2000             366.59     2.75       0          0          0         
2005             367.26     2.17       0          0          0         
2010             369.53     2.35       0          0          0         
2015             374.04     2.53       0          0          0         
2020             375.27     3.07       0          0          0         
2025             384.08     1.18       0          0          0         
2030             389.08     1.36       0          0          0         
2035             375.86     3.16       0          0          0         
2040             390.67     2.45       0          0          0         
2045             391.76     2.33       0          0          0         
2050             395.75     1.52       0          0          0         
2055             397.75     2.15       0          0          0         
2060             403.33     3.01       0          0          0         
2065             403.83     2.46       0          0          0         
2100             376.66     2.05       0          0          0         
2105             377.72     1.87       0          0          0         
2110             379.77     1.58       0          0          0         
2115             381.85     2          0          0          0         
2120             387.7      1.87       0          0          0         
2125             391.25     1.3        0          0          0         
2135             397.01     2.77       0          0          0         
2130             399.79     1.53       0          0          0         
2140             397.21     1.4        0          0          0         
2145             403.36     3.35       0          0          0         
2150             404.63     2.55       0          0          0         
2155             417.74     1.99       0          0          0         
2160             419.37     1.93       0          0          0         
2165             428.23     3.03       0          0          0         
2170             414.31     2.15       0          0          0         
2180             416.03     4.5        0          0          0         
2175             419.14     1.14       0          0          0         
2185             416.56     1.75       0          0          0         
2190             417.35     3.17       0          0          0         
2195             418        1.56       0          0          0         
2200             339.64     4.66       0          0          0         