[TITLE]
;;Project Title/Notes

[OPTIONS]
;;Option             Value
FLOW_UNITS           CFS
INFILTRATION         GREEN_AMPT
FLOW_ROUTING         DYNWAVE
LINK_OFFSETS         DEPTH
MIN_SLOPE            0
ALLOW_PONDING        NO
SKIP_STEADY_STATE    NO

START_DATE           09/10/2003
START_TIME           08:00:00
REPORT_START_DATE    09/10/2003
REPORT_START_TIME    08:00:00
END_DATE             09/11/2003
END_TIME             05:00:00
SWEEP_START          01/01
SWEEP_END            12/31
DRY_DAYS             0
REPORT_STEP          00:15:00
WET_STEP             00:05:00
DRY_STEP             00:15:00
ROUTING_STEP         0:00:10 

INERTIAL_DAMPING     FULL
NORMAL_FLOW_LIMITED  BOTH
FORCE_MAIN_EQUATION  H-W
VARIABLE_STEP        0.75
LENGTHENING_STEP     15
MIN_SURFAREA         0
MAX_TRIALS           0
HEAD_TOLERANCE       0
SYS_FLOW_TOL         5
LAT_FLOW_TOL         5
MINIMUM_STEP         0.5
THREADS              1

[EVAPORATION]
;;Data Source    Parameters
;;-------------- ----------------
MONTHLY          0.04   0.05   0.07   0.11   0.15   0.17   0.18   0.16   0.12   0.09   0.06   0.05  
DRY_ONLY         NO

[RAINGAGES]
;;Name           Format    Interval SCF      Source    
;;-------------- --------- ------ ------ ----------
RG1              VOLUME    1:00     1.0      TIMESERIES MyStorm         
WWTPRG2V2        VOLUME    1:00     1        TIMESERIES MyStorm         

[SUBCATCHMENTS]
;;Name           Rain Gage        Outlet           Area     %Imperv  Width    %Slope   CurbLen  SnowPack        
;;-------------- ---------------- ---------------- -------- -------- -------- -------- -------- ----------------
;PartiallySep
Cat_CSO1         RG1              SMH-3115         120      48.7     1645     1.62717315 0                        
;Combined
Cat_CSO10_1      RG1              SMH-3199         98.8     49.3     2982     1.3958908 0                        
;PartiallySep
Cat_CSO10_2      RG1              SMH-3175         143      39.7     1195     3.29652485 0                        
;Combined
Cat_CSO10_3      RG1              SMH-6205         8.499279197 59.6     875      3.22139818 0                        
;Wastewater
Cat_CSO13_1      WWTPRG2V2        SMH-5489         5.7      39.3     719      2.45932108 0                        
;Wastewater
Cat_CSO13_2      RG1              SMH-6216         16.3     40.1     1210     3.519073 0                        
;Combined
Cat_CSO13_3      RG1              SMH-6154A        47.9     60       2076     3.65733275 0                        
;Combined
Cat_CSO13_4      RG1              SMH-3290         40.25527894 49.2     1903.411439 2.97383814 0                        
;Wastewater
Cat_CSO13_5      WWTPRG2V2        SMH-5481         0.6      42       235      2.93326596 0                        
;Combined
Cat_CSO16        RG1              SMH-2872         28.5     73.5     1602     3.60717769 0                        
;Combined
Cat_CSO19        RG1              SMH-2832         134      68.8     2317     2.35063584 0                        
;Wastewater
Cat_CSO21A_1     WWTPRG2V2        SMH-1714         1.6      44.8     128      1.67498676 0                        
;Combined
Cat_CSO21A_10    RG1              SMH-6256         2.8      64.7     501      4.85582104 0                        
;Wastewater
Cat_CSO21A_2     WWTPRG2V2        SMH-6120         0.8      44       87       2.63066372 0                        
;Wastewater
Cat_CSO21A_3     WWTPRG2V2        SMH-6069         2.3      38.7     380      2.37375948 0                        
;Wastewater
Cat_CSO21A_4     WWTPRG2V2        SMH-6305         5.5      46.7     701      3.24146313 0                        
;Wastewater
Cat_CSO21A_5     WWTPRG2V2        SMH-6314         6.4      50.9     756      2.88201823 0                        
;Wastewater
Cat_CSO21A_6     WWTPRG2V2        SMH-2241         5.3      44.5     687      1.86231832 0                        
;Combined
Cat_CSO21A_7     RG1              SMH-6255         11.12665934 75       1000.699426 1.50472349 0                        
;Combined
Cat_CSO21A_8     RG1              SMH-6249         8.6      87.5     879      1.74794935 0                        
;Combined; modeled area (baseline) is 52.8 ac and width 5087 ft
Cat_CSO21A_9     RG1              SMH-6052         25.6     90       1517     1.84597776 0                        
;Combined
Cat_CSO21D       RG1              NMWS01           7.7      83.1     831      2.48204285 0                        
;Combined
Cat_CSO21ED_1    RG1              SMH-3698         7.2      73.9     803      3.32632287 0                        
;Combined
Cat_CSO21ED_2    RG1              SMH-6325         9.22783454 76.3     304      1.52979679 0                        
;Combined
Cat_CSO21H_1     RG1              SMH-6319         140.7    53.2     1483     2.3689281 0                        
;Combined
Cat_CSO21H_2     RG1              SMH-3680         37.14659021 75.9     1219     1.99906081 0                        
;Combined
Cat_CSO21H_3     RG1              SMH-6190         8.06074075 83.5     284      0.84573232 0                        
;Combined
Cat_CSO22        RG1              SMH-3754         21.6     68       930      3.05296791 0                        
;Combined
Cat_CSO23_1      RG1              SMH-3775         13       62.7     1095     2.94619307 0                        
;Combined
Cat_CSO23_2      RG1              SMH-6076         80.6     55.1     1347     3.5195417 0                        
;Combined
Cat_CSO24        RG1              SMH-2328         13.29581519 74.3     1093.902814 4.33526305 0                        
;Wastewater
Cat_CSO25_1      WWTPRG2V2        SMH-4336         0.74     41.8     300      3.13490228 0                        
;Wastewater
Cat_CSO25_2      WWTPRG2V2        SMH-4272         3.9      42.8     590      2.50092876 0                        
;Wastewater
Cat_CSO25_3      RG1              SMH-5846         0.1      38.7     100      5.3420497 0                        
;Wastewater
Cat_CSO25_4      RG1              SMH-5888         0.7      52.1     256      4.11758322 0                        
;PartiallySep
Cat_CSO25_5      RG1              SMH-2569         12.3     56.7     1053     5.06435266 0                        
;PartiallySep
Cat_CSO25_6      RG1              SMH-2321         4.7      71.5     647      2.23082822 0                        
;PartiallySep
Cat_CSO25_7      RG1              SMH-2331         10.1     68.4     951      2.65156251 0                        
;PartiallySep
Cat_CSO31_1      RG1              SMH-5797         8.2      40.4     859      2.34520233 0                        
;Combined
Cat_CSO31_2      RG1              SMH-5797         52.8     46.3     2181     2.58563418 0                        
;Combined
Cat_CSO35_1      RG1              SMH-3616         12.9     59.5     718      1.87620499 0                        
;Combined
Cat_CSO33        RG1              SMH-3547         9.166602182 56       1514     2.32438429 0                        
;Combined
Cat_CSO34        RG1              CDM41            49.95493781 55.1     3534     1.95325084 0                        
;Combined
Cat_CSO36        RG1              SMH-1371         67.69827672 63.6     2468.368875 1.38481656 0                        
;PartiallySep
Cat_CSO38_1      RG1              SMH-2257         26       60       1019     2.68939367 0                        
;Combined
Cat_CSO38_2      RG1              SMH-3720         35.6     61.3     1192     3.54055383 0                        
;PartiallySep
Cat_WWTP_1       RG1              CDM46            25.3     39.2     502      2.38672234 0                        
;Wastewater
Cat_WWTP_2       WWTPRG2V2        SMH-5948         1.04     46.6     204      1.95549401 0                        
;Wastewater
Cat_WWTP_3       WWTPRG2V2        SMH-5947         0.3      59.7     109      2.07131242 0                        
;Wastewater
Cat_WWTP_4       WWTPRG2V2        SMH-5886         0.08     45.9     85       2.29085013 0                        
;Wastewater
Cat_WWTP_5       WWTPRG2V2        SMH-2938         0.08     49.7     86       2.98141813 0                        
;Wastewater
Cat_WWTP_6       WWTPRG2V2        SMH-2933         0.03     47.9     54       3.18867665 0                        
;Combined
Cat_WWTP_7       RG1              SMH-5870         0.2      65.7     132      0.60934026 0                        
;Combined
Cat_CSO32_1      RG1              SMH-3525         80.17    57.8     6268     1.92503559 0                        
;Combined
Cat_CSO32_2      RG1              SMH-3525         105.93   47.8     7205     1.92503559 0                        
;Combined
Cat_CSO35_2      RG1              SMH-3432         66.97    50.7     1637     1.87620499 0                        

[SUBAREAS]
;;Subcatchment   N-Imperv   N-Perv     S-Imperv   S-Perv     PctZero    RouteTo    PctRouted 
;;-------------- ---------- ---------- ---------- ---------- ---------- ---------- ----------
Cat_CSO1         0.05       0.1        0.05       0.2        25         Pervious   60        
Cat_CSO10_1      0.05       0.1        0.05       0.2        25         Pervious   60        
Cat_CSO10_2      0.05       0.1        0.05       0.2        25         Pervious   60        
Cat_CSO10_3      0.05       0.1        0.05       0.2        25         Pervious   60        
Cat_CSO13_1      0.05       0.1        0.05       0.2        25         OUTLET    
Cat_CSO13_2      0.05       0.1        0.05       0.2        25         OUTLET    
Cat_CSO13_3      0.05       0.1        0.05       0.2        25         Pervious   50        
Cat_CSO13_4      0.05       0.1        0.05       0.2        25         Pervious   60        
Cat_CSO13_5      0.05       0.1        0.05       0.2        25         OUTLET    
Cat_CSO16        0.05       0.1        0.05       0.2        25         Pervious   50        
Cat_CSO19        0.05       0.1        0.05       0.2        25         Pervious   50        
Cat_CSO21A_1     0.05       0.1        0.05       0.2        25         OUTLET    
Cat_CSO21A_10    0.05       0.1        0.05       0.2        25         Pervious   60        
Cat_CSO21A_2     0.05       0.1        0.05       0.2        25         OUTLET    
Cat_CSO21A_3     0.05       0.1        0.05       0.2        25         OUTLET    
Cat_CSO21A_4     0.05       0.1        0.05       0.2        25         OUTLET    
Cat_CSO21A_5     0.05       0.1        0.05       0.2        25         OUTLET    
Cat_CSO21A_6     0.05       0.1        0.05       0.2        25         OUTLET    
Cat_CSO21A_7     0.05       0.1        0.05       0.2        25         Pervious   50        
Cat_CSO21A_8     0.05       0.1        0.05       0.2        25         Pervious   50        
Cat_CSO21A_9     0.05       0.1        0.05       0.2        25         OUTLET    
Cat_CSO21D       0.05       0.1        0.05       0.2        25         Pervious   50        
Cat_CSO21ED_1    0.05       0.1        0.05       0.2        25         Pervious   50        
Cat_CSO21ED_2    0.05       0.1        0.05       0.2        25         Pervious   50        
Cat_CSO21H_1     0.05       0.1        0.05       0.2        25         Pervious   60        
Cat_CSO21H_2     0.05       0.1        0.05       0.2        25         Pervious   50        
Cat_CSO21H_3     0.05       0.1        0.05       0.2        25         Pervious   50        
Cat_CSO22        0.05       0.1        0.05       0.2        25         Pervious   60        
Cat_CSO23_1      0.05       0.1        0.05       0.2        25         Pervious   50        
Cat_CSO23_2      0.05       0.1        0.05       0.2        25         Pervious   60        
Cat_CSO24        0.05       0.1        0.05       0.2        25         Pervious   50        
Cat_CSO25_1      0.05       0.1        0.05       0.2        25         OUTLET    
Cat_CSO25_2      0.05       0.1        0.05       0.2        25         OUTLET    
Cat_CSO25_3      0.05       0.1        0.05       0.2        25         OUTLET    
Cat_CSO25_4      0.05       0.1        0.05       0.2        25         OUTLET    
Cat_CSO25_5      0.05       0.1        0.05       0.2        25         Pervious   60        
Cat_CSO25_6      0.05       0.1        0.05       0.2        25         Pervious   50        
Cat_CSO25_7      0.05       0.1        0.05       0.2        25         Pervious   50        
Cat_CSO31_1      0.05       0.1        0.05       0.2        25         Pervious   60        
Cat_CSO31_2      0.05       0.1        0.05       0.2        25         Pervious   60        
Cat_CSO35_1      0.05       0.1        0.05       0.2        25         Pervious   60        
Cat_CSO33        0.05       0.1        0.05       0.2        25         Pervious   60        
Cat_CSO34        0.05       0.1        0.05       0.2        25         Pervious   60        
Cat_CSO36        0.05       0.1        0.05       0.2        25         Pervious   60        
Cat_CSO38_1      0.05       0.1        0.05       0.2        25         Pervious   60        
Cat_CSO38_2      0.05       0.1        0.05       0.2        25         Pervious   60        
Cat_WWTP_1       0.05       0.1        0.05       0.2        25         Pervious   60        
Cat_WWTP_2       0.05       0.1        0.05       0.2        25         OUTLET    
Cat_WWTP_3       0.05       0.1        0.05       0.2        25         OUTLET    
Cat_WWTP_4       0.05       0.1        0.05       0.2        25         OUTLET    
Cat_WWTP_5       0.05       0.1        0.05       0.2        25         OUTLET    
Cat_WWTP_6       0.05       0.1        0.05       0.2        25         OUTLET    
Cat_WWTP_7       0.05       0.1        0.05       0.2        25         Pervious   60        
Cat_CSO32_1      0.05       0.1        0.05       0.2        25         Pervious   60        
Cat_CSO32_2      0.05       0.1        0.05       0.2        25         Pervious   60        
Cat_CSO35_2      0.05       0.1        0.05       0.2        25         Pervious   60        

[INFILTRATION]
;;Subcatchment   Suction    Ksat       IMD       
;;-------------- ---------- ---------- ----------
Cat_CSO1         2.41       2.35       0.312     
Cat_CSO10_1      2.41       2.35       0.312     
Cat_CSO10_2      4.33       0.86       0.246     
Cat_CSO10_3      4.33       0.86       0.246     
Cat_CSO13_1      4.33       0.86       0.246     
Cat_CSO13_2      4.33       0.86       0.246     
Cat_CSO13_3      2.41       2.35       0.312     
Cat_CSO13_4      4.33       0.86       0.246     
Cat_CSO13_5      4.33       0.86       0.246     
Cat_CSO16        2.41       2.35       0.312     
Cat_CSO19        2.41       2.35       0.312     
Cat_CSO21A_1     4.33       0.86       0.246     
Cat_CSO21A_10    2.41       2.35       0.312     
Cat_CSO21A_2     4.33       0.86       0.246     
Cat_CSO21A_3     4.33       0.86       0.246     
Cat_CSO21A_4     4.33       0.86       0.246     
Cat_CSO21A_5     4.33       0.86       0.246     
Cat_CSO21A_6     4.33       0.86       0.246     
Cat_CSO21A_7     4.33       0.86       0.246     
Cat_CSO21A_8     2.41       2.35       0.312     
Cat_CSO21A_9     4.33       0.86       0.246     
Cat_CSO21D       2.41       2.35       0.312     
Cat_CSO21ED_1    2.41       2.35       0.312     
Cat_CSO21ED_2    2.41       2.35       0.312     
Cat_CSO21H_1     2.41       2.35       0.312     
Cat_CSO21H_2     2.41       2.35       0.312     
Cat_CSO21H_3     2.41       2.35       0.312     
Cat_CSO22        2.41       2.35       0.312     
Cat_CSO23_1      2.41       2.35       0.312     
Cat_CSO23_2      2.41       2.35       0.312     
Cat_CSO24        2.41       2.35       0.312     
Cat_CSO25_1      4.33       0.86       0.246     
Cat_CSO25_2      4.33       0.86       0.246     
Cat_CSO25_3      4.33       0.86       0.246     
Cat_CSO25_4      4.33       0.86       0.246     
Cat_CSO25_5      2.41       2.35       0.312     
Cat_CSO25_6      2.41       2.35       0.312     
Cat_CSO25_7      2.41       2.35       0.312     
Cat_CSO31_1      2.41       2.35       0.312     
Cat_CSO31_2      2.41       2.35       0.312     
Cat_CSO35_1      2.41       2.35       0.312     
Cat_CSO33        4.33       0.86       0.246     
Cat_CSO34        4.33       0.86       0.246     
Cat_CSO36        4.33       0.86       0.246     
Cat_CSO38_1      2.41       2.35       0.312     
Cat_CSO38_2      2.41       2.35       0.312     
Cat_WWTP_1       2.41       2.35       0.312     
Cat_WWTP_2       4.33       0.86       0.246     
Cat_WWTP_3       4.33       0.86       0.246     
Cat_WWTP_4       4.33       0.86       0.246     
Cat_WWTP_5       4.33       0.86       0.246     
Cat_WWTP_6       4.33       0.86       0.246     
Cat_WWTP_7       2.41       2.35       0.312     
Cat_CSO32_1      2.41       2.35       0.312     
Cat_CSO32_2      2.41       2.35       0.312     
Cat_CSO35_2      2.41       2.35       0.312     

[JUNCTIONS]
;;Name           Elevation  MaxDepth   InitDepth  SurDepth   Aponded   
;;-------------- ---------- ---------- ---------- ---------- ----------
;increased max depth from 2 to 10
503              5.25       10         0          0          150000    
517              14.5       10         0          0          150000    
70               -2.59      0          0          1000       0         
71               -2.6       0          0          1000       0         
72               -0.92      0          0          1000       0         
942              8.12       15.1       0          0          150000    
955              17.55      11.65      0          0          150000    
Bates            8.4        4.6        0          0          150000    
Bradford         8.58       31.23      0          0          150000    
Bradford-1       8.91       30.99      0          0          150000    
Broadway         32.6       10.87      0          0          150000    
CB-4415          12.9       9.2        0          0          150000    
CDM10            -16.7      1.667      0          1000       0         
CDM11            -15.42     2.5        0          1000       0         
CDM12            -15.42     1.5        0          1000       0         
CDM13            -15.42     1.667      0          1000       0         
CDM14            0          12.5       0          0          150000    
CDM15            -8.4       19.7       0          0          150000    
CDM16            -7.5       20.6       0          0          150000    
CDM18            -7.5       20.6       0          0          150000    
;increased max depth to same rim elevation as u/s node to eliminate flooding caused by tide
CDM19            0.05       21.15      0          0          150000    
CDM20            -7.8       20.3       0          0          150000    
CDM23            6.03       7          0          0          150000    
CDM25            5.5        12.64      0          0          150000    
CDM26            6.25       11.89      0          0          150000    
CDM27            -11.5      2.5        0          1000       0         
CDM28            -11.5      1.33       0          1000       0         
CDM29            -11.5      1.5        0          1000       0         
CDM30            -21.25     2.5        0          1000       0         
CDM31            -21.25     1.33       0          1000       0         
CDM32            -21.25     1.5        0          1000       0         
CDM34            13.63      10.2       0          0          150000    
CDM41            6.64       16.12      0          0          150000    
CDM45            3.167      16.833     0          0          150000    
CDM46            13.6       19.4       0          0          150000    
CDM8             -16.7      2.5        0          1000       0         
CDM9             -16.7      1.5        0          1000       0         
CDM960           15.55      12.08688   0          0          150000    
DMH-6094         15         8.83       0          0          150000    
Ferry            4.45       8.96       0          0          150000    
;increased max depth from 8.66 to 11.66 to rid flooding from tide
Ferry-1          4.6        11.66      0          0          150000    
FireStation      10         9          0          0          150000    
Gate_WWTPPS      -12.38     32         0          0          150000    
GrovelandPS      15         10         0          0          150000    
HighStDiv        25.52      10.11      0          0          150000    
LS-24PS          12.41      15.21      0          0          150000    
MarginalPS       8          0          0          1000       0         
Middlesex        5.06       17.42      0          0          150000    
Middlesex-1      4.5        17.98      0          0          150000    
MidSiph1A        -15.03     0          0          1000       0         
MidSiph1B        -11        0          0          1000       0         
MidSiph2A        -15.03     0          0          1000       0         
MidSiph2B        -11        0          0          1000       0         
NMWS01           9.77       13.5       0          0          150000    
SMain            6.59       9.68       0          1000       0         
SMain-1          6.55       9.72       0          1000       0         
SMH-1368         6.48       5.7        0          0          150000    
SMH-1369         22.31      9.7        0          0          150000    
SMH-1370         26.03      7.6        0          0          150000    
SMH-1371         28.48      8.22       0          0          150000    
SMH-1714         57.2       26         0          0          150000    
;no invert data, invert was estimated
SMH-1738         56.7       8.3        0          0          150000    
SMH-1947         116.81     7.61       0          0          150000    
SMH-2241         46.07      8.01096    0          0          150000    
SMH-2242         40.8       7.41       0          0          150000    
SMH-2245         34.65      6.55       0          0          150000    
;invert estimated
SMH-2257         44.38      19         0          0          150000    
SMH-2321         30.5       10         0          0          150000    
SMH-2328         27.75      8.32       0          0          150000    
SMH-2329         29.85      7.9        0          0          150000    
SMH-2330         33.6       9.24998    0          0          150000    
SMH-2331         51.32      8.14136    0          0          150000    
SMH-2344         26.41      34.17908   0          0          150000    
SMH-2345         21.51      10         0          0          150000    
SMH-2346         22.06      10         0          0          150000    
SMH-2347         29.35      6.35       0          0          150000    
SMH-2569         29.95      8.39799    0          0          150000    
SMH-2775         111.82     9.8862     0          0          150000    
SMH-2776         113.61     15.63706   0          0          150000    
SMH-2777         112.8      17.17258   0          0          150000    
SMH-2778         114.79     28.71014   0          0          150000    
SMH-2779         115.77     29.80352   0          0          150000    
SMH-2832         75.32      7.1        0          0          150000    
SMH-2872         38.9       10         0          0          150000    
SMH-2888         46.33      6.7        0          0          150000    
SMH-2889         32.61      9.3        0          0          150000    
SMH-2933         40.04      6.12       0          0          150000    
SMH-2935         33.68      5.97       0          0          150000    
SMH-2936         26.71      8.54       0          0          150000    
SMH-2937         25.47      9          0          0          150000    
SMH-2938         28.51      5.74       0          0          150000    
SMH-2939         27.56      6.09       0          0          150000    
SMH-2972         23.5       10         0          0          150000    
SMH-3105         15.09      6.11       0          0          150000    
SMH-3108         10.45      6.75       0          0          150000    
SMH-3115         27.36      8.35645    0          0          150000    
SMH-3116         23.76      5.44       0          0          150000    
SMH-3117         20.16      5.04       0          0          150000    
SMH-3175         41.62      7.8        0          0          150000    
SMH-3199         11.28      7.92       0          0          150000    
SMH-3208         9.26       9.94       0          0          150000    
SMH-3243         29.25      10.7       0          0          150000    
SMH-3245         38.65      8.4        0          0          150000    
SMH-3246         40.05      8.3        0          0          150000    
SMH-3247         18.75      8.3        0          0          150000    
SMH-3248         11.65      9.64       0          0          150000    
SMH-3289         97.45      8.8        0          0          150000    
SMH-3290         74.45      7.05       0          0          150000    
SMH-3296         60.45      7.65       0          0          150000    
SMH-3297         16.45      6          0          0          150000    
SMH-3384         79.54      7.87       0          0          150000    
SMH-3387         66.42      6.56       0          0          150000    
SMH-3388         75.6       6.56       0          0          150000    
SMH-3390         53.8       7.22       0          0          150000    
SMH-3400         50.01      5.91       0          0          150000    
SMH-3432         105.13     5.25       0          0          150000    
SMH-3433         93.98      5.9        0          0          150000    
SMH-3525         32.5       13.15      0          0          150000    
SMH-3547         37.26      14.71      0          0          150000    
SMH-3548         37.26      2.74       0          0          150000    
SMH-3561         39.8       8          0          0          150000    
SMH-3562         40.82      7.88       0          0          150000    
SMH-3566         34.92      9.18       0          0          150000    
SMH-3613         27.04      6.56       0          0          150000    
SMH-3614         23.1       7.23       0          0          150000    
SMH-3615         30.8       10         0          0          150000    
SMH-3616         34.92      9.18       0          0          150000    
SMH-3680         38.31      10         0          0          150000    
SMH-3689         30.31      10         0          0          150000    
SMH-3694         15         16.77732   0          0          150000    
SMH-3698         35         10.5       0          0          150000    
SMH-3720         33.95      10.2       0          0          150000    
SMH-3754         37.44      9.56       0          0          150000    
SMH-3770         24.35      6.9        0          0          150000    
SMH-3775         32         15.26      0          0          150000    
;Added to close pipe with orifice
CDM960A          15.55      12         0          0          150000    
SMH-3820         56.685     5.322      0          0          150000    
SMH-3821         68.76      7.395      0          0          150000    
SMH-4272         34.85      6.35       0          0          150000    
SMH-4274         27.33      4.93       0          0          150000    
SMH-4275         30.5       16.49      0          0          150000    
SMH-4336         13.53      13.93897   0          0          150000    
SMH-4337         13.15      13.01658   0          0          150000    
SMH-4338         12.6       9.3452     0          0          150000    
SMH-5001         113.29     15.29911   0          0          150000    
SMH-5002         112.31     12.75095   0          0          150000    
SMH-5131         9.55       16.67      0          0          150000    
SMH-5178         34.6       5.8        0          0          150000    
SMH-5481         118.2      10.9384    0          0          150000    
SMH-5482         116.31     8.06328999999999 0          0          150000    
SMH-5483         111.25     12.91178   0          0          150000    
SMH-5484         114.82     7.58       0          0          150000    
SMH-5485         115.85     12.85313   0          0          150000    
SMH-5486         116.35     12.6547    0          0          150000    
SMH-5487         116.85     10.96205   0          0          150000    
SMH-5488         117.35     10.35841   0          0          150000    
SMH-5489         117.77     11.61129   0          0          150000    
SMH-5506         115.4      7.92       0          0          150000    
SMH-5507         114.24     9.37920000000001 0          0          150000    
SMH-5508         113.81     8          0          0          150000    
SMH-5602         38.01      7.71       0          0          150000    
SMH-5603         37.36      12.07      0          0          150000    
SMH-5604         35.08      6.35       0          0          150000    
SMH-5605         36.76      8.2        0          0          150000    
SMH-5609         35.84      14.16      0          0          150000    
SMH-5610         36.25      8.07474    0          0          150000    
SMH-5611         36.14      8.58       0          0          150000    
SMH-5787         11.54      16.34443   0          0          150000    
SMH-5797         32.25      14.04253   0          0          150000    
SMH-5798         18.16      12.87864   0          0          150000    
SMH-5799         12.65      12.37      0          0          150000    
SMH-5807         15.37      19.2       0          0          150000    
SMH-5808         8.4        18         0          0          150000    
SMH-5809         8.82       16.78      0          0          150000    