[TITLE]
;;Project Title/Notes

[OPTIONS]
;;Option             Value
FLOW_UNITS           MGD
INFILTRATION         HORTON
FLOW_ROUTING         DYNWAVE
LINK_OFFSETS         DEPTH
MIN_SLOPE            0
ALLOW_PONDING        NO
SKIP_STEADY_STATE    NO

START_DATE           10/01/2012
START_TIME           00:00:00
REPORT_START_DATE    10/01/2012
REPORT_START_TIME    00:00:00
END_DATE             10/03/2012
END_TIME             00:00:00
SWEEP_START          01/01
SWEEP_END            12/31
DRY_DAYS             0
REPORT_STEP          00:05:00
WET_STEP             00:05:00
DRY_STEP             00:05:00
ROUTING_STEP         0:00:05 

INERTIAL_DAMPING     PARTIAL
NORMAL_FLOW_LIMITED  BOTH
FORCE_MAIN_EQUATION  H-W
VARIABLE_STEP        0.75
LENGTHENING_STEP     0
MIN_SURFAREA         0
MAX_TRIALS           0
HEAD_TOLERANCE       0
SYS_FLOW_TOL         5
LAT_FLOW_TOL         5
MINIMUM_STEP         0.5
THREADS              1

[EVAPORATION]
;;Data Source    Parameters
;;-------------- ----------------
CONSTANT         0.0
DRY_ONLY         NO

[RAINGAGES]
;;Name           Format    Interval SCF      Source    
;;-------------- --------- ------ ------ ----------
RG1              INTENSITY 1:00     1.0      TIMESERIES RG1             

[SUBCATCHMENTS]
;;Name           Rain Gage        Outlet           Area     %Imperv  Width    %Slope   CurbLen  SnowPack        
;;-------------- ---------------- ---------------- -------- -------- -------- -------- -------- ----------------
; Name Raingage Outlet Area %Imperv Width Slope Clength
021              RG1              0500010138       55       40       873.34164 0.725023 0                        
133              RG1              003006009A       60.6     40       916.622908 0.04447  0                        
136              RG1              0500010138       86.8     40       1097.054106 0.725023 0                        
147              RG1              0500010138       30.4     40       649.090116 0.725023 0                        
156              RG1              0030020009       166      40       1517.122473 0.193907 0                        
20               RG1              0500010138       158.6    40       1482.979564 0.725023 0                        
527547_1540515   RG1              0500010069       5.4      40       272.686813 1.425    0                        
528325_1539903   RG1              0500010020       49.4     40       827.412878 0.344461 0                        
528508_1540864   RG1              0500010074       20.1     40       527.301718 0.406125 0                        
528546_1541732   RG1              0500010103       50.2     40       834.531212 0.226238 0                        
528607_1541176   RG1              0500010087       17.1     40       486.486643 0.339206 0                        
528887_1540536   RG1              0500010066       15.3     40       460.966879 0.917801 0                        
529552_1539694   RG1              0500010006       9.9      40       369.661072 0.389641 0                        
530327_1541311   RG1              0500010087       12.8     40       421.349375 0.339206 0                        
530380_1542863   RG1              0500010137       18.3     40       503.967697 0.020853 0                        
530383_1539961   RG1              0500010014       22.5     40       558.460595 0.246288 0                        
530429_1542367   RG1              0500010131       7        40       312.434266 0.086224 0                        
530431_1541874   RG1              0500010126       19.6     40       521.82998 0.334492 0                        
530442_1540727   RG1              0500010057       17.7     40       494.811749 0.373434 0                        
530959_1540331   RG1              0030070062       25.9     40       599.305216 0.615134 0                        
531533_1543853   RG1              0030060010       31.2     40       657.899223 0.566344 0                        
531832_1539865   RG1              0030070003       31.7     40       662.685707 0.341384 0                        
532306_1542240   RG1              0030060003       77.9     40       1039.22649 0.273488 0                        
532575_1540995   RG1              0030030016       67.3     40       966.115454 0.307806 0                        
532876_1543680   RG1              0030060002       47       40       807.424286 0.059799 0                        
533021_1539758   RG1              0030040025       30.7     40       652.546125 0.130968 0                        
533823_1544198   RG1              0030050004       49.5     40       828.686101 0.511287 0                        
533864_1542362   RG1              0030050006       56.2     40       882.681831 0.402844 0                        
534017_1539283   RG1              0030040020       29.6     40       641.044806 0.460231 0                        
534658_1541040   RG1              0030030014       16.6     40       480.072339 0.282459 0                        
534680_1536145   RG1              0030080061       14.4     40       447.286939 0.090373 0                        
534987_1544379   RG1              0030020028       11.4     40       398.360086 0.47224  0                        
535063_1538852   RG1              0030040009       29       40       633.621601 0.388074 0                        
535286_1543788   RG1              0030020024       27.3     40       615.297231 0.352877 0                        
535373_1539947   RG1              0030030006       66.9     40       963.387517 1.855635 0                        
535772_1542274   RG1              0030020064       105      40       1206.650212 0.175692 0                        
535881_1540912   RG1              0030030011       39.8     40       742.94652 0.357104 0                        
535923_1536214   RG1              0030080046       29.1     40       635.613481 1.355014 0                        
536141_1538888   RG1              0030040002       19.4     40       518.244885 0.29961  0                        
536197_1543939   RG1              0030020010       25.4     40       593.992437 0.543443 0                        
536389_1537467   RG1              0030080038       7.3      40       318.280791 0.224769 0                        
536476_1538186   RG1              0030080005       2.8      40       195.639081 1.017185 0                        
536815_1538253   RG1              0030080012       5.6      40       279.339753 0.432001 0                        
536839_1544278   RG1              0030020154       9        40       353.569428 0.493435 0                        
536855_1539803   RG1              0030010127       5.8      40       282.738863 1.849725 0                        
537074_1540906   RG1              0030010125       9.4      40       361.77461 0        0                        
537115_1537569   RG1              0030080012       21.7     40       548.781526 0.432001 0                        
537132_1543800   RG1              0030020102       19.1     40       513.948547 0.267415 0                        
537286_1542756   RG1              003PRV0073       13.7     40       435.67069 0.679277 0                        
537363_1540188   RG1              0030010052       3.1      40       207.113889 1.826992 0                        
537397_1538375   RG1              0030080016       3.9      40       232.159225 0.937975 0                        
537432_1541633   RG1              003PRV0057       8.5      40       344.298085 2.110106 0                        
537459_1542123   RG1              003PRV0063       10.4     40       379.557151 0.488216 0                        
537513_1540752   RG1              0030010118       12.7     40       419.239307 1.310861 0                        
537640_1538374   RG1              0030080018       5.4      40       274.866823 0        0                        
537789_1539960   RG1              0030010049       4.4      40       245.653815 0.512511 0                        
537936_1538498   RG1              0030080020       7.8      40       328.863907 0.693426 0                        
537979_1538732   RG1              0030010138       43.4     40       776.096063 0.628739 0                        
538082_1536401   RG1              0030080020       8        40       332.164012 0.693426 0                        
538203_1542472   RG1              003PRV0064       9.9      40       369.941726 0.019775 0                        
538207_1544351   RG1              0150010063       13.3     40       428.826093 1.12057  0                        
538207_1544351!  RG1              0030010016       13.3     40       428.826093 0.273219 0                        
538313_1537152   RG1              0030080020       58       40       896.435963 0.693426 0                        
538369_1543896   RG1              0150010057       22       40       551.771426 0.579518 0                        
538369_1543896!  RG1              0030010016       22       40       551.771426 0.273219 0                        
538396_1540482   RG1              0030010046       25       40       588.884944 0.872455 0                        
538501_1541238   RG1              0030010062       18.2     40       502.552928 0.167692 0                        
538754_1543116   RG1              0150010041       16.9     40       483.586273 0.336992 0                        
538754_1543116!  RG1              0030010016       16.9     40       483.586273 0.273219 0                        
539012_1539758   RG1              0030010027       5.5      40       277.081773 0.680478 0                        
539013_1538201   RG1              0030100013       4.6      40       253.06599 2.06092  0                        
539045_1539064   RG1              0030010027       7.8      40       328.800219 0.680478 0                        
539192_1540347   RG1              0030140002       3.2      40       209.811777 0.609365 0                        
539237_1540873   RG1              0030010025       5.4      40       274.175946 0.551145 0                        
539649_1543745   RG1              0150010012       45       40       789.56865 0.155017 0                        
539649_1543745!  RG1              0030010016       45       40       789.56865 0.273219 0                        
539822_1538885   RG1              0030110001       9.5      40       363.158749 0.651569 0                        
539890_1538535   RG1              0030110003       10.9     40       389.107458 0.653809 0                        
540010_1540929   RG1              0030010007       10.8     40       387.464863 0.337071 0                        
540071_1539420   RG1              0030140005       35.1     40       697.904801 0.138372 0                        
540095_1542818   RG1              0030010019       15.1     40       457.506751 1.070916 0                        
540186_1537346   RG1              0030100021       68.7     40       976.15786 0.192588 0                        
540319_1542520   RG1              0030010018       3.4      40       215.59088 0.15873  0                        
540344_1541709   RG1              0030010016       11.7     40       403.017267 0.273219 0                        
540882_1543865   RG1              0030010019       32.4     40       669.918511 1.070916 0                        
541043_1541720   RG1              0030010019       39.7     40       742.051989 1.070916 0                        
541130_1537553   RG1              0030110011       20.9     40       537.803547 0.84224  0                        
541281_1538245   RG1              0030110011       18.4     40       505.278149 0.84224  0                        
542173_1537302   RG1              0030110014       4.6      40       251.210765 0.497166 0                        
542173_1537302_1 RG1              0030130006       31.4     40       660.23028 0.048831 0                        
542233_1538978   RG1              0030110052       2.6      40       191.447284 0.936851 0                        
542309_1539733   RG1              0030110053       6.3      40       294.965105 0.11902  0                        
542404_1538375   RG1              0030110016       2.9      40       200.57633 0.52055  0                        
542484_1538705   RG1              0030110017       3.6      40       223.105896 0.296216 0                        
542570_1537721   RG1              0030130001       5.2      40       268.757648 0.578947 0                        
542609_1536340   RG1              0030130043       14.4     40       446.154322 0.143352 0                        
542628_1538994   RG1              0030110019       5.9      40       285.723488 0.716999 0                        
542781_1539725   RG1              0030110022       12.5     40       416.300804 0.049438 0                        
542819_1537388   RG1              0030130004       8.6      40       344.462522 0.193182 0                        
542862_1538123   RG1              0030110050       5.7      40       281.227976 0.208007 0                        
542926_1538494   RG1              0030110058       1.9      40       161.91952 0.149951 0                        
542947_1538907   RG1              0030110057       4.4      40       247.624645 0.826949 0                        
543237_1538784   RG1              0030120015       1.8      40       158.730001 0.038867 0                        
543247_1538514   RG1              0030120023       1.7      40       153.103326 0.173141 0                        
543249_1537818   RG1              0030120025       2.3      40       178.761965 1.303597 0                        
543250_1538188   RG1              0030120025       2.5      40       187.578257 1.303597 0                        
543265_1539134   RG1              0030120002       3.1      40       207.797233 0.388889 0                        
543434_1536393   RG1              0030120025       12.8     40       421.415203 1.303597 0                        
543517_1538559   RG1              0030120028       1.3      40       135.593329 0.265898 0                        
543524_1538359   RG1              0030120026       1        40       117.143084 0.322051 0                        
543532_1538901   RG1              0030120016       2.8      40       198.44735 0.120105 0                        
543550_1539242   RG1              0030120002       1        40       118.097758 0.388889 0                        
543665_1537783   RG1              0030120025       13.3     40       429.162523 1.303597 0                        
543778_1538267   RG1              0030120030       1.3      40       134.238156 0.488765 0                        
543779_1538521   RG1              0030120028       1.8      40       157.103351 0.265898 0                        
543810_1538854   RG1              0030120017       2.4      40       180.641686 0.246655 0                        
543878_1539218   RG1              0030120003       3.7      40       226.175305 0.116805 0                        
544037_1538543   RG1              0030120031       1.3      40       136.640903 0.33319  0                        
544039_1538096   RG1              0030120033       1.4      40       139.547896 0.390809 0                        
544040_1538318   RG1              0030120032       1.3      40       136.350219 0.294609 0                        
544045_1538786   RG1              0030120019       1.4      40       141.455717 0.003114 0                        
544243_1539226   RG1              0030120035       0.9      40       111.699982 0        0                        
544245_1539050   RG1              0030120019       2        40       166.546863 0.003114 0                        
544282_1538804   RG1              0030120020       1.7      40       151.893013 0.332981 0                        
544288_1539347   RG1              0030120005       0.9      40       110.263655 0.246367 0                        
544298_1538556   RG1              0030120020       1.3      40       135.681963 0.332981 0                        
544299_1538329   RG1              0030120021       1.4      40       138.921591 0.527458 0                        
544310_1538070   RG1              0030120022       1.7      40       154.382175 0.570585 0                        
544640_1538956   RG1              0030120037       8.3      40       339.508814 0.300378 0                        
544657_1537431   RG1              0030120025       53.9     40       864.186978 1.303597 0                        
544707_1538032   RG1              0030120052       3.1      40       208.729146 0.064234 0                        
544887_1538306   RG1              0030120051       8.5      40       342.894013 0.247714 0                        
545222_1538668   RG1              0030120048       7.6      40       325.657032 0.193671 0                        
545418_1537124   RG1              0030120025       14       40       440.960299 1.303597 0                        
545527_1539137   RG1              0030120010       20.2     40       529.772178 0.708822 0                        

[SUBAREAS]
;;Subcatchment   N-Imperv   N-Perv     S-Imperv   S-Perv     PctZero    RouteTo    PctRouted 
;;-------------- ---------- ---------- ---------- ---------- ---------- ---------- ----------
021              0.015      0.2        0          0          0          OUTLET    
133              0.015      0.2        0          0          0          OUTLET    
136              0.015      0.2        0          0          0          OUTLET    
147              0.015      0.2        0          0          0          OUTLET    
156              0.015      0.2        0          0          0          OUTLET    
20               0.015      0.2        0          0          0          OUTLET    
527547_1540515   0.015      0.2        0          0          0          OUTLET    
528325_1539903   0.015      0.2        0          0          0          OUTLET    
528508_1540864   0.015      0.2        0          0          0          OUTLET    
528546_1541732   0.015      0.2        0          0          0          OUTLET    
528607_1541176   0.015      0.2        0          0          0          OUTLET    
528887_1540536   0.015      0.2        0          0          0          OUTLET    
529552_1539694   0.015      0.2        0          0          0          OUTLET    
530327_1541311   0.015      0.2        0          0          0          OUTLET    
530380_1542863   0.015      0.2        0          0          0          OUTLET    
530383_1539961   0.015      0.2        0          0          0          OUTLET    
530429_1542367   0.015      0.2        0          0          0          OUTLET    
530431_1541874   0.015      0.2        0          0          0          OUTLET    
530442_1540727   0.015      0.2        0          0          0          OUTLET    
530959_1540331   0.015      0.2        0          0          0          OUTLET    
531533_1543853   0.015      0.2        0          0          0          OUTLET    
531832_1539865   0.015      0.2        0          0          0          OUTLET    
532306_1542240   0.015      0.2        0          0          0          OUTLET    
532575_1540995   0.015      0.2        0          0          0          OUTLET    
532876_1543680   0.015      0.2        0          0          0          OUTLET    
533021_1539758   0.015      0.2        0          0          0          OUTLET    
533823_1544198   0.015      0.2        0          0          0          OUTLET    
533864_1542362   0.015      0.2        0          0          0          OUTLET    
534017_1539283   0.015      0.2        0          0          0          OUTLET    
534658_1541040   0.015      0.2        0          0          0          OUTLET    
534680_1536145   0.015      0.2        0          0          0          OUTLET    
534987_1544379   0.015      0.2        0          0          0          OUTLET    
535063_1538852   0.015      0.2        0          0          0          OUTLET    
535286_1543788   0.015      0.2        0          0          0          OUTLET    
535373_1539947   0.015      0.2        0          0          0          OUTLET    
535772_1542274   0.015      0.2        0          0          0          OUTLET    
535881_1540912   0.015      0.2        0          0          0          OUTLET    
535923_1536214   0.015      0.2        0          0          0          OUTLET    
536141_1538888   0.015      0.2        0          0          0          OUTLET    
536197_1543939   0.015      0.2        0          0          0          OUTLET    
536389_1537467   0.015      0.2        0          0          0          OUTLET    
536476_1538186   0.015      0.2        0          0          0          OUTLET    
536815_1538253   0.015      0.2        0          0          0          OUTLET    
536839_1544278   0.015      0.2        0          0          0          OUTLET    
536855_1539803   0.015      0.2        0          0          0          OUTLET    
537074_1540906   0.015      0.2        0          0          0          OUTLET    
537115_1537569   0.015      0.2        0          0          0          OUTLET    
537132_1543800   0.015      0.2        0          0          0          OUTLET    
537286_1542756   0.015      0.2        0          0          0          OUTLET    
537363_1540188   0.015      0.2        0          0          0          OUTLET    
537397_1538375   0.015      0.2        0          0          0          OUTLET    
537432_1541633   0.015      0.2        0          0          0          OUTLET    
537459_1542123   0.015      0.2        0          0          0          OUTLET    
537513_1540752   0.015      0.2        0          0          0          OUTLET    
537640_1538374   0.015      0.2        0          0          0          OUTLET    
537789_1539960   0.015      0.2        0          0          0          OUTLET    
537936_1538498   0.015      0.2        0          0          0          OUTLET    
537979_1538732   0.015      0.2        0          0          0          OUTLET    
538082_1536401   0.015      0.2        0          0          0          OUTLET    
538203_1542472   0.015      0.2        0          0          0          OUTLET    
538207_1544351   0.015      0.2        0          0          0          OUTLET    
538207_1544351!  0.015      0.2        0          0          0          OUTLET    
538313_1537152   0.015      0.2        0          0          0          OUTLET    
538369_1543896   0.015      0.2        0          0          0          OUTLET    
538369_1543896!  0.015      0.2        0          0          0          OUTLET    
538396_1540482   0.015      0.2        0          0          0          OUTLET    
538501_1541238   0.015      0.2        0          0          0          OUTLET    
538754_1543116   0.015      0.2        0          0          0          OUTLET    
538754_1543116!  0.015      0.2        0          0          0          OUTLET    
539012_1539758   0.015      0.2        0          0          0          OUTLET    
539013_1538201   0.015      0.2        0          0          0          OUTLET    
539045_1539064   0.015      0.2        0          0          0          OUTLET    
539192_1540347   0.015      0.2        0          0          0          OUTLET    
539237_1540873   0.015      0.2        0          0          0          OUTLET    
539649_1543745   0.015      0.2        0          0          0          OUTLET    
539649_1543745!  0.015      0.2        0          0          0          OUTLET    
539822_1538885   0.015      0.2        0          0          0          OUTLET    
539890_1538535   0.015      0.2        0          0          0          OUTLET    
540010_1540929   0.015      0.2        0          0          0          OUTLET    
540071_1539420   0.015      0.2        0          0          0          OUTLET    
540095_1542818   0.015      0.2        0          0          0          OUTLET    
540186_1537346   0.015      0.2        0          0          0          OUTLET    
540319_1542520   0.015      0.2        0          0          0          OUTLET    
540344_1541709   0.015      0.2        0          0          0          OUTLET    
540882_1543865   0.015      0.2        0          0          0          OUTLET    
541043_1541720   0.015      0.2        0          0          0          OUTLET    
541130_1537553   0.015      0.2        0          0          0          OUTLET    
541281_1538245   0.015      0.2        0          0          0          OUTLET    
542173_1537302   0.015      0.2        0          0          0          OUTLET    
542173_1537302_1 0.015      0.2        0          0          0          OUTLET    
542233_1538978   0.015      0.2        0          0          0          OUTLET    
542309_1539733   0.015      0.2        0          0          0          OUTLET    
542404_1538375   0.015      0.2        0          0          0          OUTLET    
542484_1538705   0.015      0.2        0          0          0          OUTLET    
542570_1537721   0.015      0.2        0          0          0          OUTLET    
542609_1536340   0.015      0.2        0          0          0          OUTLET    
542628_1538994   0.015      0.2        0          0          0          OUTLET    
542781_1539725   0.015      0.2        0          0          0          OUTLET    
542819_1537388   0.015      0.2        0          0          0          OUTLET    
542862_1538123   0.015      0.2        0          0          0          OUTLET    
542926_1538494   0.015      0.2        0          0          0          OUTLET    
542947_1538907   0.015      0.2        0          0          0          OUTLET    
543237_1538784   0.015      0.2        0          0          0          OUTLET    
543247_1538514   0.015      0.2        0          0          0          OUTLET    
543249_1537818   0.015      0.2        0          0          0          OUTLET    
543250_1538188   0.015      0.2        0          0          0          OUTLET    
543265_1539134   0.015      0.2        0          0          0          OUTLET    
543434_1536393   0.015      0.2        0          0          0          OUTLET    
543517_1538559   0.015      0.2        0          0          0          OUTLET    
543524_1538359   0.015      0.2        0          0          0          OUTLET    
543532_1538901   0.015      0.2        0          0          0          OUTLET    
543550_1539242   0.015      0.2        0          0          0          OUTLET    
543665_1537783   0.015      0.2        0          0          0          OUTLET    
543778_1538267   0.015      0.2        0          0          0          OUTLET    
543779_1538521   0.015      0.2        0          0          0          OUTLET    
543810_1538854   0.015      0.2        0          0          0          OUTLET    
543878_1539218   0.015      0.2        0          0          0          OUTLET    
544037_1538543   0.015      0.2        0          0          0          OUTLET    
544039_1538096   0.015      0.2        0          0          0          OUTLET    
544040_1538318   0.015      0.2        0          0          0          OUTLET    
544045_1538786   0.015      0.2        0          0          0          OUTLET    
544243_1539226   0.015      0.2        0          0          0          OUTLET    
544245_1539050   0.015      0.2        0          0          0          OUTLET    
544282_1538804   0.015      0.2        0          0          0          OUTLET    
544288_1539347   0.015      0.2        0          0          0          OUTLET    
544298_1538556   0.015      0.2        0          0          0          OUTLET    
544299_1538329   0.015      0.2        0          0          0          OUTLET    
544310_1538070   0.015      0.2        0          0          0          OUTLET    
544640_1538956   0.015      0.2        0          0          0          OUTLET    
544657_1537431   0.015      0.2        0          0          0          OUTLET    
544707_1538032   0.015      0.2        0          0          0          OUTLET    
544887_1538306   0.015      0.2        0          0          0          OUTLET    
545222_1538668   0.015      0.2        0          0          0          OUTLET    
545418_1537124   0.015      0.2        0          0          0          OUTLET    
545527_1539137   0.015      0.2        0          0          0          OUTLET    

[INFILTRATION]
;;Subcatchment   MaxRate    MinRate    Decay      DryTime    MaxInfil  
;;-------------- ---------- ---------- ---------- ---------- ----------
021              0          0          0          999        0         
133              0          0          0          999        0         
136              0          0          0          999        0         
147              0          0          0          999        0         
156              0          0          0          999        0         
20               0          0          0          999        0         
527547_1540515   0          0          0          999        0         
528325_1539903   0          0          0          999        0         
528508_1540864   0          0          0          999        0         
528546_1541732   0          0          0          999        0         
528607_1541176   0          0          0          999        0         
528887_1540536   0          0          0          999        0         
529552_1539694   0          0          0          999        0         
530327_1541311   0          0          0          999        0         
530380_1542863   0          0          0          999        0         
530383_1539961   0          0          0          999        0         
530429_1542367   0          0          0          999        0         
530431_1541874   0          0          0          999        0         
530442_1540727   0          0          0          999        0         