[OPTIONS]
;Option and Files Scenario Set: BASE, Base Simulation Options
FLOW_UNITS	CFS
INFILTRATION	HORTON
FLOW_ROUTING	DYNWAVE
ALLOW_PONDING	NO
DRY_DAYS	5.000000
SKIP_STEADY_STATE 	NO
IGNORE_RAINFALL	YES
IGNORE_SNOWMELT	YES
IGNORE_GROUNDWATER	YES
IGNORE_QUALITY	YES
FORCE_MAIN_EQUATION	H-W
LINK_OFFSETS	DEPTH
MIN_SLOPE	0.000000
START_DATE	01/01/2002
START_TIME	00:00
END_DATE	01/01/2002
END_TIME	23:00
REPORT_START_DATE	01/01/2002
REPORT_START_TIME	00:00
SWEEP_START	01/01
SWEEP_END	12/31
WET_STEP	01:00:00
DRY_STEP	23:00:00
ROUTING_STEP	30
REPORT_STEP	00:05:00
INERTIAL_DAMPING	NONE
VARIABLE_STEP	0.750000
MINIMUM_STEP	0.5
LENGTHENING_STEP	0
MIN_SURFAREA	0.000000
NORMAL_FLOW_LIMITED	BOTH
MAX_TRIALS	4
HEAD_TOLERANCE	0.005000

[FILES]

[RAINGAGES]

[HYDROGRAPHS]
; 
10	
10	ALL	Short	0.050000	1.320000	4.030000	0.100000	0.100000	0.050000
10	ALL	Medium	0.050000	2.680000	4.260000	0.100000	0.100000	0.050000
10	ALL	Long	0.160000	8.500000	4.810000	0.100000	0.100000	0.050000
; 
12	KITCHENER
12	ALL	Short	0.032310	0.579583	0.309457	0.100000	0.100000	0.050000
12	ALL	Medium	0.006513	2.945393	14.491062	0.100000	0.100000	0.050000
12	ALL	Long	0.006235	49.856201	9.680750	0.100000	0.100000	0.050000
; 
3	KITCHENER
3	ALL	Short	0.200000	0.990000	1.450000	0.100000	0.100000	0.050000
3	ALL	Medium	0.060000	1.120000	4.320000	0.100000	0.100000	0.050000
3	ALL	Long	0.010000	8.780000	30.250000	0.100000	0.100000	0.050000
; 
7	KITCHENER
7	ALL	Short	0.080000	0.820000	3.350000	0.100000	0.100000	0.050000
7	ALL	Medium	0.120000	1.920000	5.500000	0.100000	0.100000	0.050000
7	ALL	Long	0.150000	2.860000	8.600000	0.100000	0.100000	0.050000
; 
8	KITCHENER
8	ALL	Short	0.050000	1.320000	4.030000	0.100000	0.100000	0.050000
8	ALL	Medium	0.050000	2.680000	4.260000	0.100000	0.100000	0.050000
8	ALL	Long	0.160000	8.500000	4.810000	0.100000	0.100000	0.050000
; 
9	KITCHENER
9	ALL	Short	0.140000	0.580000	0.310000	0.100000	0.100000	0.050000
9	ALL	Medium	0.030000	2.950000	10.490000	0.100000	0.100000	0.050000
9	ALL	Long	0.010000	16.400000	9.680000	0.100000	0.100000	0.050000
; 
KITCHENER	
KITCHENER	ALL	Short	0.050000	1.320000	4.030000	0.100000	0.100000	0.050000
KITCHENER	ALL	Medium	0.050000	2.680000	4.260000	0.100000	0.100000	0.050000
KITCHENER	ALL	Long	0.160000	8.500000	4.810000	0.100000	0.100000	0.050000
; 
SITE1	KITCHENER
SITE1	ALL	Short	0.081055	0.472527	1.105383	0.100000	0.100000	0.050000
SITE1	ALL	Medium	0.049786	5.812176	4.865398	0.100000	0.100000	0.050000
SITE1	ALL	Long	0.021920	20.676094	2.694167	0.100000	0.100000	0.050000
; 
SITE11	KITCHENER
SITE11	ALL	Short	0.032310	0.579583	0.309457	0.100000	0.100000	0.050000
SITE11	ALL	Medium	0.006513	2.945393	14.491062	0.100000	0.100000	0.050000
SITE11	ALL	Long	0.006235	49.856201	9.680750	0.100000	0.100000	0.050000
; 
SITE13	KITCHENER
SITE13	ALL	Short	0.032310	0.579583	0.309457	0.100000	0.100000	0.050000
SITE13	ALL	Medium	0.006513	2.945393	14.491062	0.100000	0.100000	0.050000
SITE13	ALL	Long	0.006235	49.856201	9.680750	0.100000	0.100000	0.050000
; 
SITE14	KITCHENER
SITE14	ALL	Short	0.042310	0.579583	0.309457	0.100000	0.100000	0.050000
SITE14	ALL	Medium	0.016513	2.945393	10.491062	0.100000	0.100000	0.050000
SITE14	ALL	Long	0.026235	49.856201	9.680750	0.100000	0.100000	0.050000
; 
SITE15	KITCHENER
SITE15	ALL	Short	0.282310	0.579583	0.309457	0.100000	0.100000	0.050000
SITE15	ALL	Medium	0.016513	2.945393	10.491062	0.100000	0.100000	0.050000
SITE15	ALL	Long	0.026235	49.856201	9.680750	0.100000	0.100000	0.050000
; 
SITE16	KITCHENER
SITE16	ALL	Short	0.032310	0.579583	0.309457	0.100000	0.100000	0.050000
SITE16	ALL	Medium	0.006513	2.945393	14.491062	0.100000	0.100000	0.050000
SITE16	ALL	Long	0.006235	49.856201	9.680750	0.100000	0.100000	0.050000
; 
SITE17	KITCHENER
SITE17	ALL	Short	0.042310	0.579583	0.309457	0.100000	0.100000	0.050000
SITE17	ALL	Medium	0.006513	2.945393	10.491062	0.100000	0.100000	0.050000
SITE17	ALL	Long	0.006235	49.856201	9.680750	0.100000	0.100000	0.050000
; 
SITE2	KITCHENER
SITE2	ALL	Short	0.081055	0.472527	0.505383	0.100000	0.100000	0.050000
SITE2	ALL	Medium	0.049786	5.812176	2.865398	0.100000	0.100000	0.050000
SITE2	ALL	Long	0.021920	20.676094	2.694167	0.100000	0.100000	0.050000
; 
SITE3	KITCHENER
SITE3	ALL	Short	0.200000	0.990000	1.450000	0.100000	0.100000	0.050000
SITE3	ALL	Medium	0.060000	1.120000	4.320000	0.100000	0.100000	0.050000
SITE3	ALL	Long	0.010000	8.780000	3.250000	0.100000	0.100000	0.050000
; 
SITE4	KITCHENER
SITE4	ALL	Short	0.066859	0.300448	1.756205	0.100000	0.100000	0.050000
SITE4	ALL	Medium	0.020276	5.230909	2.345936	0.100000	0.100000	0.050000
SITE4	ALL	Long	0.016852	35.173509	6.433625	0.100000	0.100000	0.050000
; 
SITE5	KITCHENER
SITE5	ALL	Short	0.202350	0.884191	2.358961	0.100000	0.100000	0.050000
SITE5	ALL	Medium	0.099700	4.774993	2.608529	0.100000	0.100000	0.050000
SITE5	ALL	Long	0.114813	24.318008	3.938645	0.100000	0.100000	0.050000
; 
SITE6	KITCHENER
SITE6	ALL	Short	0.067573	0.579128	3.004336	0.100000	0.100000	0.050000
SITE6	ALL	Medium	0.145384	9.725772	6.993954	0.100000	0.100000	0.050000
SITE6	ALL	Long	0.015470	17.414227	5.210809	0.100000	0.100000	0.050000

[EVAPORATION]
CONSTANT	0.000000
DRY_ONLY	NO

[TEMPERATURE]

[ADJUSTMENTS]

[SUBCATCHMENTS]

[SUBAREAS]

[INFILTRATION]

[AQUIFERS]

[GROUNDWATER]

[GWF]

[SNOWPACKS]

[JUNCTIONS]
; SANITARY
2000006	319.280000	2.130000	0.000000	0.000000	0.000000
; SANITARY
2000008	319.010000	2.130000	0.000000	0.000000	0.000000
; SANITARY
2000010	318.740000	2.050000	0.000000	0.000000	0.000000
; SANITARY
2000012	318.470000	2.120000	0.000000	0.000000	0.000000
; SANITARY
2000014	317.980000	2.200000	0.000000	0.000000	0.000000
; SANITARY
2000016	317.910000	2.250000	0.000000	0.000000	0.000000
; SANITARY
2000021	318.180000	2.070000	0.000000	0.000000	0.000000
; SANITARY
2000025	317.570000	2.170000	0.000000	0.000000	0.000000
; SANITARY
2000027	317.210000	2.130000	0.000000	0.000000	0.000000
; SANITARY
2000038	327.938000	1.980000	0.000000	0.000000	0.000000
; SANITARY
2000039	328.185000	2.010000	0.000000	0.000000	0.000000
; SANITARY
2000040	337.527000	3.550000	0.000000	0.000000	0.000000
; SANITARY
2000041	336.000000	3.390000	0.000000	0.000000	0.000000
; SANITARY
2000045	335.180000	3.420000	0.000000	0.000000	0.000000
; SANITARY
2000047	334.219000	3.540000	0.000000	0.000000	0.000000
; SANITARY
2000049	332.736000	3.300000	0.000000	0.000000	0.000000
; SANITARY
2000051	331.590000	3.140000	0.000000	0.000000	0.000000
; SANITARY
2000053	331.298000	2.920000	0.000000	0.000000	0.000000
; SANITARY
2000055	330.985000	3.080000	0.000000	0.000000	0.000000
; SANITARY
2000057	330.769000	3.270000	0.000000	0.000000	0.000000
; SANITARY
2000060	330.358000	3.380000	0.000000	0.000000	0.000000
; SANITARY
2000062	329.990000	0.000000	0.000000	0.000000	0.000000
; SANITARY
2000064	329.793000	3.510000	0.000000	0.000000	0.000000
; SANITARY
2000066	329.417000	3.700000	0.000000	0.000000	0.000000
; SANITARY
2000068	328.657000	3.680000	0.000000	0.000000	0.000000
; SANITARY
2000070	327.983000	3.680000	0.000000	0.000000	0.000000
; SANITARY
2000072	327.289000	3.710000	0.000000	0.000000	0.000000
; SANITARY
2000074	326.887000	3.990000	0.000000	0.000000	0.000000
; SANITARY
2000076	332.237000	3.080000	0.000000	0.000000	0.000000
; SANITARY
2000077	331.535000	2.960000	0.000000	0.000000	0.000000
; SANITARY
2000079	330.248000	3.080000	0.000000	0.000000	0.000000
; SANITARY
2000081	328.811000	3.120000	0.000000	0.000000	0.000000
; SANITARY
2000083	328.462000	3.180000	0.000000	0.000000	0.000000
; SANITARY
2000085	327.226000	3.660000	0.000000	0.000000	0.000000
; SANITARY
2000088	331.535000	3.490000	0.000000	0.000000	0.000000
; SANITARY
2000090	333.384000	4.350000	0.000000	0.000000	0.000000
; SANITARY
2000093	324.306000	3.610000	0.000000	0.000000	0.000000
; SANITARY
2000095	320.770000	5.580000	0.000000	0.000000	0.000000
; SANITARY
2000098	338.882000	3.990000	0.000000	0.000000	0.000000
; SANITARY
2000099	337.568000	3.410000	0.000000	0.000000	0.000000
; SANITARY
2000101	335.530000	3.240000	0.000000	0.000000	0.000000
; SANITARY
2000103	338.568000	3.920000	0.000000	0.000000	0.000000
; SANITARY
2000105	338.393000	3.810000	0.000000	0.000000	0.000000
; SANITARY
2000108	337.919000	3.430000	0.000000	0.000000	0.000000
; SANITARY
2000111	339.869000	2.990000	0.000000	0.000000	0.000000
; SANITARY
2000112	338.794000	3.270000	0.000000	0.000000	0.000000
; SANITARY
2000115	337.329000	3.260000	0.000000	0.000000	0.000000
; SANITARY
2000116	336.178000	3.320000	0.000000	0.000000	0.000000
; SANITARY
2000118	336.003000	3.410000	0.000000	0.000000	0.000000
; SANITARY
2000120	335.655000	3.490000	0.000000	0.000000	0.000000
; SANITARY
2000122	335.317000	3.560000	0.000000	0.000000	0.000000
; SANITARY
2000124	336.215000	3.260000	0.000000	0.000000	0.000000
; SANITARY
2000128	339.034000	3.130000	0.000000	0.000000	0.000000
; SANITARY
2000130	336.506000	3.330000	0.000000	0.000000	0.000000
; SANITARY
2000133	304.940000	3.150000	0.000000	0.000000	0.000000
; SANITARY
2000134	303.604000	3.360000	0.000000	0.000000	0.000000
; SANITARY
2000136	302.930000	3.090000	0.000000	0.000000	0.000000
; SANITARY
2000140	304.430000	3.990000	0.000000	0.000000	0.000000
; SANITARY
2000142	305.377000	3.380000	0.000000	0.000000	0.000000
; SANITARY
2000145	302.380000	3.620000	0.000000	0.000000	0.000000
; SANITARY
2000146	303.097000	3.370000	0.000000	0.000000	0.000000
; SANITARY
2000148	301.560000	4.520000	0.000000	0.000000	0.000000
; SANITARY
2000155	301.843000	2.490000	0.000000	0.000000	0.000000
; SANITARY
2000156	302.003000	1.990000	0.000000	0.000000	0.000000
; SANITARY
2000158	303.238000	4.490000	0.000000	0.000000	0.000000
; SANITARY
2000160	305.970000	3.320000	0.000000	0.000000	0.000000
2000165	338.291000	3.000000	0.000000	0.000000	0.000000
; SANITARY
2000166	312.766000	3.240000	0.000000	0.000000	0.000000
; SANITARY
2000167	311.117000	3.480000	0.000000	0.000000	0.000000
; SANITARY
2000171	311.860000	3.060000	0.000000	0.000000	0.000000
; SANITARY
2000172	311.068000	3.100000	0.000000	0.000000	0.000000
; SANITARY
2000174	306.221000	3.920000	0.000000	0.000000	0.000000
; SANITARY
2000176	305.789000	3.110000	0.000000	0.000000	0.000000
; STMMH
2000181	313.320000	2.950000	0.000000	0.000000	0.000000
; SANITARY
2000182	314.545000	4.580000	0.000000	0.000000	0.000000
; SANITARY
2000184	318.416000	4.650000	0.000000	0.000000	0.000000
; SANITARY
2000186	318.988000	4.810000	0.000000	0.000000	0.000000
; SANITARY
2000190	310.679000	3.160000	0.000000	0.000000	0.000000
; SANITARY
2000191	310.326000	3.330000	0.000000	0.000000	0.000000
; SANITARY
2000193	309.728000	3.210000	0.000000	0.000000	0.000000
; SANITARY
2000195	307.075000	3.210000	0.000000	0.000000	0.000000
; SANITARY
2000197	304.447000	3.380000	0.000000	0.000000	0.000000
; SANITARY
2000198	304.082000	3.390000	0.000000	0.000000	0.000000
; SANITARY
2000201	303.800000	3.440000	0.000000	0.000000	0.000000
; SANITARY
2000211	313.140000	2.500000	0.000000	0.000000	0.000000
; SANITARY
2000214	312.890000	2.500000	0.000000	0.000000	0.000000
; SANITARY
2000215	312.410000	2.500000	0.000000	0.000000	0.000000
; SANITARY
2000218	311.910000	2.500000	0.000000	0.000000	0.000000
; SANITARY
2000220	311.862000	2.500000	0.000000	0.000000	0.000000
; SANITARY
2000225	328.800000	4.660000	0.000000	0.000000	0.000000
; SANITARY
2000227	374.720000	3.210000	3.210000	0.000000	0.000000
; SANITARY
2000228	374.130000	3.370000	3.370000	0.000000	0.000000
; SANITARY
2000229	372.730000	3.190000	3.190000	0.000000	0.000000
; SANITARY
2000230	371.270000	3.170000	3.170000	0.000000	0.000000
2000231	374.000000	2.000000	0.000000	0.000000	0.000000
; SANITARY
2000237	292.300000	4.130000	0.000000	0.000000	0.000000
; SANITARY
2000238	291.690000	4.090000	0.000000	0.000000	0.000000
; SANITARY
2000240	287.220000	7.400000	0.000000	0.000000	0.000000
; SANITARY
2000245	290.507000	3.430000	0.000000	0.000000	0.000000
; SANITARY
2000246	287.578000	4.000000	0.000000	0.000000	0.000000
2000249	287.640000	2.500000	0.000000	0.000000	0.000000
2000251	290.120000	2.500000	0.000000	0.000000	0.000000
; SANITARY
2000253	293.360000	4.730000	0.000000	0.000000	0.000000
; SANITARY
2000256	292.393000	4.450000	0.000000	0.000000	0.000000
; SANITARY
2000259	291.890000	4.220000	0.000000	0.000000	0.000000
; SANITARY
2000261	291.660000	4.250000	0.000000	0.000000	0.000000
; SANITARY
2000264	370.270000	3.150000	3.150000	0.000000	0.000000
; SANITARY
2000265	368.713000	4.180000	4.180000	0.000000	0.000000
; SANITARY
2000266	368.521000	2.479000	0.000000	0.000000	0.000000
; SANITARY
2000272	326.940000	2.500000	0.000000	0.000000	0.000000
; SANITARY
2000274	323.340000	2.500000	0.000000	0.000000	0.000000
; SANITARY
2000277	340.380000	2.500000	0.000000	0.000000	0.000000
; SANITARY
2000278	334.010000	2.500000	0.000000	0.000000	0.000000
; SANITARY
2000282	335.200000	3.430000	0.000000	0.000000	0.000000
; SANITARY
2000284	334.780000	3.480000	0.000000	0.000000	0.000000
; SANITARY
2000286	334.441000	3.480000	0.000000	0.000000	0.000000
; SANITARY
2000290	335.310000	2.500000	0.000000	0.000000	0.000000
; SANITARY
2000292	362.913897	2.500000	0.000000	0.000000	0.000000
; SANITARY
2000293	362.838397	2.500000	0.000000	0.000000	0.000000
; SANITARY
2000294	362.407897	2.500000	0.000000	0.000000	0.000000
; SANITARY
2000295	362.347397	2.500000	0.000000	0.000000	0.000000
; SANITARY
2000296	362.276397	2.500000	0.000000	0.000000	0.000000
; SANITARY
2000297	330.240000	2.500000	0.000000	0.000000	0.000000
; SANITARY
2000298	326.800000	2.500000	0.000000	0.000000	0.000000
; SANITARY
2000302	331.376000	4.290000	0.000000	0.000000	0.000000
; SANITARY
2000303	331.121000	4.130000	0.000000	0.000000	0.000000
; SANITARY
2000305	330.106000	4.070000	0.000000	0.000000	0.000000
; SANITARY
2000312	330.661000	4.550000	0.000000	0.000000	0.000000
; SANITARY
2000315	332.076000	3.350000	0.000000	0.000000	0.000000
; SANITARY
2000316	331.671000	3.090000	0.000000	0.000000	0.000000
; SANITARY
2000318	328.577000	4.570000	0.000000	0.000000	0.000000
; SANITARY
2000325	367.045000	3.530000	0.000000	0.000000	0.000000
; SANITARY
2000326	366.817000	3.660000	3.660000	0.000000	0.000000
; SANITARY
2000327	366.536000	4.010000	4.010000	0.000000	0.000000
; SANITARY
2000328	366.322000	4.430000	4.430000	0.000000	0.000000
; SANITARY
2000329	367.359000	3.600000	3.600000	0.000000	0.000000
; SANITARY
2000336	367.295000	3.100000	0.000000	0.000000	0.000000
; SANITARY
2000337	367.458000	4.060000	0.000000	0.000000	0.000000
; SANITARY
2000338	367.673000	5.820000	5.820000	0.000000	0.000000
; SANITARY
2000339	367.977000	6.660000	6.660000	0.000000	0.000000
; SANITARY
2000340	325.792000	4.830000	0.000000	0.000000	0.000000
; SANITARY
2000342	326.197000	4.680000	0.000000	0.000000	0.000000
; SANITARY
2000344	326.587000	4.270000	0.000000	0.000000	0.000000
; SANITARY
2000346	326.685000	4.260000	0.000000	0.000000	0.000000
; SANITARY
2000348	326.889000	4.300000	0.000000	0.000000	0.000000
; SANITARY
2000350	327.255000	5.750000	0.000000	0.000000	0.000000
; SANITARY
2000352	327.876000	4.960000	0.000000	0.000000	0.000000
; SANITARY
2000354	328.402000	4.880000	0.000000	0.000000	0.000000
; SANITARY
2000356	328.511000	5.360000	0.000000	0.000000	0.000000
; SANITARY
2000358	327.963000	3.490000	0.000000	0.000000	0.000000
; SANITARY
2000359	325.693000	2.800000	0.000000	0.000000	0.000000
; SANITARY
2000360	324.775000	3.120000	0.000000	0.000000	0.000000
; SANITARY
2000362	324.236000	3.150000	0.000000	0.000000	0.000000
; SANITARY
2000363	328.617000	5.360000	0.000000	0.000000	0.000000
; SANITARY
2000365	328.804000	4.130000	0.000000	0.000000	0.000000
; SANITARY
2000369	332.820000	4.020000	0.000000	0.000000	0.000000
; SANITARY
2000374	335.286000	3.660000	0.000000	0.000000	0.000000
; SANITARY
2000375	337.199000	3.290000	0.000000	0.000000	0.000000
; SANITARY
2000377	338.853000	2.970000	0.000000	0.000000	0.000000
; SANITARY
2000380	323.598000	2.680000	0.000000	0.000000	0.000000
; SANITARY
2000382	322.081000	2.460000	0.000000	0.000000	0.000000
; SANITARY
2000387	330.220000	2.760000	0.000000	0.000000	0.000000
; SANITARY
2000389	321.892000	4.110000	0.000000	0.000000	0.000000
; SANITARY
2000391	321.552000	4.660000	0.000000	0.000000	0.000000
; SANITARY
2000393	321.239000	5.710000	0.000000	0.000000	0.000000
; SANITARY
2000395	321.035000	6.020000	0.000000	0.000000	0.000000
; SANITARY
2000397	321.715000	4.010000	0.000000	0.000000	0.000000
; SANITARY
2000399	325.389000	3.160000	0.000000	0.000000	0.000000
; SANITARY
2000401	323.453000	2.910000	0.000000	0.000000	0.000000
; SANITARY
2000403	322.522000	3.040000	0.000000	0.000000	0.000000
; SANITARY
2000406	324.450000	3.970000	0.000000	0.000000	0.000000
; SANITARY
2000408	323.566000	3.780000	0.000000	0.000000	0.000000
; SANITARY
2000413	320.030000	4.860000	0.000000	0.000000	0.000000
; SANITARY
2000417	327.630000	2.500000	0.000000	0.000000	0.000000
; SANITARY
2000424	327.340000	2.500000	0.000000	0.000000	0.000000
; SANITARY
2000425	327.020000	2.500000	0.000000	0.000000	0.000000
; SANITARY
2000428	326.740000	2.500000	0.000000	0.000000	0.000000
; SANITARY
2000433	327.480000	2.500000	0.000000	0.000000	0.000000
; SANITARY
2000434	327.970000	2.500000	0.000000	0.000000	0.000000
; SANITARY
2000437	328.450000	2.500000	0.000000	0.000000	0.000000
; SANITARY
2000438	328.800000	2.500000	0.000000	0.000000	0.000000
; SANITARY
2000440	328.580000	3.000000	0.000000	0.000000	0.000000
; SANITARY
2000442	326.660000	2.500000	0.000000	0.000000	0.000000
; SANITARY
2000454	291.130000	3.060000	0.000000	0.000000	0.000000
; SANITARY
2000455	290.740000	3.370000	0.000000	0.000000	0.000000
; SANITARY
2000457	290.150000	3.700000	0.000000	0.000000	0.000000
; SANITARY
2000460	289.920000	3.810000	0.000000	0.000000	0.000000
; SANITARY
2000462	289.490000	3.930000	0.000000	0.000000	0.000000
; SANITARY
2000480	368.984000	2.500000	0.000000	0.000000	0.000000
; SANITARY
2000481	369.358000	2.500000	0.000000	0.000000	0.000000
; SANITARY
2000482	369.700000	2.500000	0.000000	0.000000	0.000000
2000486	369.483000	2.500000	0.000000	0.000000	0.000000
; SANITARY
2000487	368.634000	2.500000	0.000000	0.000000	0.000000
; SANITARY
2000488	368.304000	2.500000	0.000000	0.000000	0.000000
; SANITARY
2000489	367.896000	2.500000	0.000000	0.000000	0.000000
; SANITARY
2000495	316.385000	2.500000	0.000000	0.000000	0.000000
; SANITARY
2000497	313.445000	2.500000	0.000000	0.000000	0.000000
; SANITARY
2000498	312.670000	2.500000	0.000000	0.000000	0.000000
; SANITARY
2000502	312.708000	2.010000	0.000000	0.000000	0.000000
; SANITARY
2000503	312.945000	2.060000	0.000000	0.000000	0.000000
; SANITARY
2000506	313.189000	2.290000	0.000000	0.000000	0.000000
; SANITARY
2000508	313.547000	2.530000	0.000000	0.000000	0.000000
; SANITARY
2000511	313.965000	3.270000	0.000000	0.000000	0.000000
; SANITARY
2000513	315.283000	3.300000	0.000000	0.000000	0.000000
; SANITARY
2000516	363.243927	3.170000	0.000000	0.000000	0.000000
; SANITARY
2000519	337.435000	4.260000	0.000000	0.000000	0.000000
; SANITARY
2000522	338.849000	4.480000	0.000000	0.000000	0.000000
; SANITARY
2000524	334.005000	3.450000	0.000000	0.000000	0.000000
; SANITARY
2000529	340.020000	2.790000	0.000000	0.000000	0.000000
; SANITARY
2000533	336.282000	2.310000	0.000000	0.000000	0.000000
; SANITARY
2000535	335.722000	1.760000	0.000000	0.000000	0.000000
; SANITARY
2000537	335.782000	1.820000	0.000000	0.000000	0.000000
; SANITARY
2000539	336.242000	2.500000	0.000000	0.000000	0.000000
; SANITARY
2000541	336.710000	2.980000	0.000000	0.000000	0.000000
; SANITARY
2000543	337.329000	2.500000	0.000000	0.000000	0.000000
; SANITARY
2000545	336.831000	3.000000	0.000000	0.000000	0.000000
; SANITARY
2000548	337.029000	3.850000	0.000000	0.000000	0.000000
; SANITARY
2000550	337.319000	3.840000	0.000000	0.000000	0.000000
; SANITARY
2000552	338.985000	3.000000	0.000000	0.000000	0.000000
; SANITARY
2000562	325.344000	2.610000	0.000000	0.000000	0.000000
; SANITARY
2000564	325.469000	2.580000	0.000000	0.000000	0.000000
; SANITARY
2000569	335.110000	2.500000	0.000000	0.000000	0.000000
; FORCEMAIN
2000577	331.088000	1.610000	0.000000	0.000000	0.000000
2000579	363.151397	2.500000	0.000000	0.000000	0.000000
; SANITARY
2000581	327.480000	4.000000	0.000000	0.000000	0.000000
; SANITARY
2000583	326.700000	3.000000	0.000000	0.000000	0.000000
; SANITARY
2000585	326.400000	3.000000	0.000000	0.000000	0.000000
; SANITARY
2000586	325.680000	4.000000	0.000000	0.000000	0.000000
; SANITARY
2000588	320.519000	6.000000	0.000000	0.000000	0.000000
; SANITARY
2000589	321.400000	6.000000	0.000000	0.000000	0.000000
; SANITARY
2000593	322.600000	2.500000	0.000000	0.000000	0.000000
; SANITARY
2000596	323.870000	6.000000	0.000000	0.000000	0.000000
; SANITARY
2000599	321.940000	7.000000	0.000000	0.000000	0.000000
; SANITARY
2000601	321.700000	5.000000	0.000000	0.000000	0.000000
; SANITARY
2000603	321.300000	3.000000	0.000000	0.000000	0.000000
; SANITARY
2000605	320.900000	2.500000	0.000000	0.000000	0.000000
; SANITARY
2000608	320.730000	2.500000	0.000000	0.000000	0.000000
; SANITARY
2000611	323.000000	2.500000	0.000000	0.000000	0.000000
; SANITARY
2000629	321.568000	2.500000	0.000000	0.000000	0.000000
; SANITARY
2000630	322.502000	2.650000	0.000000	0.000000	0.000000
; SANITARY
2000631	323.703000	3.000000	0.000000	0.000000	0.000000
; SANITARY
2000634	325.068000	3.000000	0.000000	0.000000	0.000000
; SANITARY
2000644	332.108000	3.380000	0.000000	0.000000	0.000000
; SANITARY
2000650	330.628000	2.500000	0.000000	0.000000	0.000000
; SANITARY
2000652	331.678000	2.500000	0.000000	0.000000	0.000000
; SANITARY
2000653	332.112000	2.500000	0.000000	0.000000	0.000000
; SANITARY
2000655	333.546000	2.500000	0.000000	0.000000	0.000000
; SANITARY
2000656	335.470000	2.500000	0.000000	0.000000	0.000000
; SANITARY
2000658	334.724000	2.500000	0.000000	0.000000	0.000000
; SANITARY
2000659	333.273000	2.500000	0.000000	0.000000	0.000000
; SANITARY
2000663	329.997000	2.500000	0.000000	0.000000	0.000000
; SANITARY
2000665	328.122000	2.500000	0.000000	0.000000	0.000000
; SANITARY
2000674	324.935000	2.500000	0.000000	0.000000	0.000000
; SANITARY
2000675	325.060000	2.500000	0.000000	0.000000	0.000000
; SANITARY
2000676	333.600000	3.000000	0.000000	0.000000	0.000000
; SANITARY
2000677	333.800000	3.000000	0.000000	0.000000	0.000000
; SANITARY
2000678	325.100000	2.500000	0.000000	0.000000	0.000000
; SANITARY
2000680	332.326000	2.500000	0.000000	0.000000	0.000000
; SANITARY
2000681	335.015000	2.500000	0.000000	0.000000	0.000000
; SANITARY
2000684	325.615000	3.000000	0.000000	0.000000	0.000000
; SANITARY
2000691	316.990000	3.000000	0.000000	0.000000	0.000000
; SANITARY
2000693	318.680000	3.000000	0.000000	0.000000	0.000000
; SANITARY
2000694	320.632000	3.000000	0.000000	0.000000	0.000000
; SANITARY
2000695	321.454000	4.000000	0.000000	0.000000	0.000000
; SANITARY
2000698	333.541000	5.330000	0.000000	0.000000	0.000000
; SANITARY
2000702	319.547000	4.522885	0.000000	0.000000	0.000000
; SANITARY
2000708	325.690000	2.500000	0.000000	0.000000	0.000000
; SANITARY
2000711	324.730000	2.500000	0.000000	0.000000	0.000000
; SANITARY
2000713	324.170000	2.500000	0.000000	0.000000	0.000000
; SANITARY
2000714	323.460000	2.500000	0.000000	0.000000	0.000000
; SANITARY
2000716	326.210000	2.500000	0.000000	0.000000	0.000000
; SANITARY
2000726	319.260000	5.640000	0.000000	0.000000	0.000000
; SANITARY
2000727	318.699000	6.300000	0.000000	0.000000	0.000000
; SANITARY
2000735	319.118000	6.300000	0.000000	0.000000	0.000000
; SANITARY
2000738	320.968000	4.290000	0.000000	0.000000	0.000000
; SANITARY
2000739	319.195000	6.150000	0.000000	0.000000	0.000000
; SANITARY
2000744	319.480000	6.310000	0.000000	0.000000	0.000000
; SANITARY
2000755	323.430000	4.360000	0.000000	0.000000	0.000000
; SANITARY
2000759	323.698000	3.000000	0.000000	0.000000	0.000000
; SANITARY
2000760	323.941000	3.000000	0.000000	0.000000	0.000000
; SANITARY
2000761	322.870000	2.500000	0.000000	0.000000	0.000000
; SANITARY
2000763	326.285000	3.450000	0.000000	0.000000	0.000000
; SANITARY
2000764	325.030000	3.450000	0.000000	0.000000	0.000000
; SANITARY
2000765	320.805000	3.640000	0.000000	0.000000	0.000000
; SANITARY
2000766	322.123000	7.890000	0.000000	0.000000	0.000000
; SANITARY
2000767	325.345000	4.840000	0.000000	0.000000	0.000000
; SANITARY
2000768	315.060000	4.020000	0.000000	0.000000	0.000000
; SANITARY
2000770	315.200000	3.740000	0.000000	0.000000	0.000000
; SANITARY
2000773	314.490000	3.440000	0.000000	0.000000	0.000000
; SANITARY
2000777	313.590000	2.470000	0.000000	0.000000	0.000000
2000782	311.320000	2.630000	0.000000	0.000000	0.000000
2000784	311.180000	3.170000	0.000000	0.000000	0.000000
2000785	310.220000	3.380000	0.000000	0.000000	0.000000
2000791	311.400000	2.150000	0.000000	0.000000	0.000000
2000793	310.510000	3.380000	0.000000	0.000000	0.000000
2000797	320.111000	5.630000	0.000000	0.000000	0.000000
2000799	311.200000	3.960000	0.000000	0.000000	0.000000
2000801	312.940000	4.270000	0.000000	0.000000	0.000000
2000803	313.320000	4.090000	0.000000	0.000000	0.000000
2000810	315.520000	3.800000	0.000000	0.000000	0.000000
2000814	315.940000	3.780000	0.000000	0.000000	0.000000
2000816	316.440000	3.580000	0.000000	0.000000	0.000000
2000817	316.280000	3.720000	0.000000	0.000000	0.000000
2000819	315.940000	4.000000	0.000000	0.000000	0.000000
2000822	316.950000	3.590000	0.000000	0.000000	0.000000
2000824	317.250000	3.420000	0.000000	0.000000	0.000000
2000826	315.920000	3.600000	0.000000	0.000000	0.000000
2000828	312.390000	4.610000	0.000000	0.000000	0.000000
2000830	311.970000	4.760000	0.000000	0.000000	0.000000
2000835	313.240000	4.020000	0.000000	0.000000	0.000000
2000837	313.700000	4.090000	0.000000	0.000000	0.000000
2000839	317.120000	3.260000	0.000000	0.000000	0.000000
2000841	317.250000	3.160000	0.000000	0.000000	0.000000
2000843	316.820000	3.260000	0.000000	0.000000	0.000000
2000847	316.240000	3.460000	0.000000	0.000000	0.000000
2000849	316.050000	3.510000	0.000000	0.000000	0.000000
2000903	339.880000	3.220000	0.000000	0.000000	0.000000
2000904	340.030000	3.220000	0.000000	0.000000	0.000000
2000909	333.760000	3.000000	0.000000	0.000000	0.000000
2000910	369.703000	6.560000	0.000000	0.000000	0.000000
2000931	312.803000	4.140000	0.000000	0.000000	0.000000
2000932	311.087000	5.510000	0.000000	0.000000	0.000000
2000935	308.810000	2.850000	0.000000	0.000000	0.000000
2000938	310.241000	3.010000	0.000000	0.000000	0.000000
2000941	310.401000	3.060000	0.000000	0.000000	0.000000
2000943	311.131000	2.970000	0.000000	0.000000	0.000000
2000947	314.361000	6.360000	0.000000	0.000000	0.000000
2000948	314.686000	4.870000	0.000000	0.000000	0.000000
2000949	315.120000	4.730000	0.000000	0.000000	0.000000
2000950	316.360000	8.590000	0.000000	0.000000	0.000000
2000951	317.310000	8.340000	0.000000	0.000000	0.000000
2000978	319.720000	5.030000	0.000000	0.000000	0.000000
2000979	318.250000	5.000000	0.000000	0.000000	0.000000
2000980	317.870000	4.780000	0.000000	0.000000	0.000000
2000985	321.290000	1.160000	0.000000	0.000000	0.000000
2000986	321.670000	3.680000	0.000000	0.000000	0.000000
2000994	337.191200	3.130000	0.000000	0.000000	0.000000
2000995	339.540000	2.960000	0.000000	0.000000	0.000000
2000996	340.220000	3.130000	0.000000	0.000000	0.000000
2000997	339.448000	3.970000	0.000000	0.000000	0.000000
2000998	335.980000	4.270000	0.000000	0.000000	0.000000
2000999	322.080000	4.070000	0.000000	0.000000	0.000000
2001000	322.300000	3.850000	0.000000	0.000000	0.000000
2001001	322.730000	3.820000	0.000000	0.000000	0.000000
2001007	323.160000	2.690000	0.000000	0.000000	0.000000
2001008	323.390000	5.110000	0.000000	0.000000	0.000000
2001009	323.900000	9.750000	0.000000	0.000000	0.000000
2001016	344.637000	5.000000	0.000000	0.000000	0.000000
2001023	358.839000	3.840000	0.000000	0.000000	0.000000
2001024	360.754000	4.080000	0.000000	0.000000	0.000000
2001026	362.686000	4.314000	0.000000	0.000000	0.000000
2001028	363.671000	4.090000	0.000000	0.000000	0.000000
2001029	364.550000	4.450000	0.000000	0.000000	0.000000
2001030	364.980000	3.770000	0.000000	0.000000	0.000000
2001033	363.208000	3.800000	0.000000	0.000000	0.000000
2001034	363.396000	3.450000	0.000000	0.000000	0.000000
2001041	364.858000	3.110000	0.000000	0.000000	0.000000
2001042	365.419000	3.460000	0.000000	0.000000	0.000000
2001043	364.576000	3.010000	0.000000	0.000000	0.000000
2001047	361.500000	4.950000	0.000000	0.000000	0.000000
2001048	361.913000	4.850000	0.000000	0.000000	0.000000
2001049	364.284000	2.800000	0.000000	0.000000	0.000000
2001054	363.040000	4.230000	0.000000	0.000000	0.000000
2001055	362.575000	4.460000	0.000000	0.000000	0.000000
2001062	366.662000	3.210000	0.000000	0.000000	0.000000
2001063	367.785000	3.340000	0.000000	0.000000	0.000000
2001064	368.500000	3.010000	0.000000	0.000000	0.000000
2001065	367.557000	3.420000	0.000000	0.000000	0.000000
2001066	367.129000	3.400000	0.000000	0.000000	0.000000
2001067	365.685000	3.420000	0.000000	0.000000	0.000000
2001070	363.350000	3.000000	0.000000	0.000000	0.000000
2001071	361.850000	3.720000	0.000000	0.000000	0.000000
2001072	364.000000	4.000000	0.000000	0.000000	0.000000
2001073	296.952000	8.540000	0.000000	0.000000	0.000000
2001074	302.389000	3.670000	0.000000	0.000000	0.000000
2001075	297.212000	7.000000	0.000000	0.000000	0.000000
2001077	307.362000	3.140000	0.000000	0.000000	0.000000
2001078	306.639000	2.250000	0.000000	0.000000	0.000000
2001082	296.393000	7.910000	0.000000	0.000000	0.000000
2001083	296.527000	7.700000	0.000000	0.000000	0.000000
2001089	307.916000	3.220000	0.000000	0.000000	0.000000
2001090	310.162000	3.280000	0.000000	0.000000	0.000000
2001093	311.888000	2.980000	0.000000	0.000000	0.000000
2001095	297.551000	7.430000	0.000000	0.000000	0.000000
2001096	297.973000	6.280000	0.000000	0.000000	0.000000
2001097	298.296000	6.660000	0.000000	0.000000	0.000000
2001103	298.663000	6.030000	0.000000	0.000000	0.000000
2001105	300.756000	5.410000	0.000000	0.000000	0.000000
2001109	301.349000	6.710000	0.000000	0.000000	0.000000
2001110	300.940000	6.000000	0.000000	0.000000	0.000000
2001113	301.727000	7.090000	0.000000	0.000000	0.000000
2001118	302.258000	7.070000	0.000000	0.000000	0.000000
2001121	302.540000	7.150000	0.000000	0.000000	0.000000