[TITLE]
;;Project Title/Notes

[OPTIONS]
;;Option             Value
FLOW_UNITS           GPM
INFILTRATION         HORTON
FLOW_ROUTING         DYNWAVE
LINK_OFFSETS         DEPTH
MIN_SLOPE            0
ALLOW_PONDING        YES
SKIP_STEADY_STATE    NO

IGNORE_RAINFALL      YES
IGNORE_SNOWMELT      YES
IGNORE_QUALITY       YES
START_DATE           06/01/2012
START_TIME           00:00:00
REPORT_START_DATE    06/01/2012
REPORT_START_TIME    00:00:00
END_DATE             06/01/2012
END_TIME             23:55:00
SWEEP_START          01/01
SWEEP_END            12/31
DRY_DAYS             5.000000
REPORT_STEP          00:00:10
WET_STEP             00:05:00
DRY_STEP             01:00:00
ROUTING_STEP         0:00:02 

INERTIAL_DAMPING     NONE
NORMAL_FLOW_LIMITED  BOTH
FORCE_MAIN_EQUATION  H-W
VARIABLE_STEP        0.75
LENGTHENING_STEP     5
MIN_SURFAREA         12.557
MAX_TRIALS           8
HEAD_TOLERANCE       0.000010
SYS_FLOW_TOL         5
LAT_FLOW_TOL         5
MINIMUM_STEP         0
THREADS              1

[EVAPORATION]
;;Data Source    Parameters
;;-------------- ----------------
CONSTANT         0.0
DRY_ONLY         NO

[JUNCTIONS]
;;Name           Elevation  MaxDepth   InitDepth  SurDepth   Aponded   
;;-------------- ---------- ---------- ---------- ---------- ----------
1                397.630000 12.850000  0.000000   0.000000   0.000000  
10               467.420000 10.400000  0.000000   0.000000   0.000000  
11               466.540000 8.300000   0.000000   0.000000   0.000000  
2                397.170000 13.310000  0.000000   0.000000   0.000000  
21               396.460000 7.200000   0.000000   0.000000   0.000000  
22               395.120000 8.900000   0.000000   0.000000   0.000000  
24               398.260000 9.050000   0.000000   0.000000   0.000000  
3                395.080000 12.950000  0.000000   0.000000   0.000000  
30               425.260000 5.800000   0.000000   0.000000   0.000000  
31               422.100000 9.310000   0.000000   0.000000   0.000000  
32               420.480000 9.400000   0.000000   0.000000   0.000000  
33               412.090000 8.910000   0.000000   0.000000   0.000000  
34               411.540000 6.900000   0.000000   0.000000   0.000000  
35               409.860000 11.600000  0.000000   0.000000   0.000000  
4                394.040000 12.400000  0.000000   0.000000   0.000000  
40               403.090000 5.910000   0.000000   0.000000   0.000000  
42               411.380000 6.000000   0.000000   0.000000   0.000000  
43               420.730000 6.270000   0.000000   0.000000   0.000000  
44               415.920000 6.400000   0.000000   0.000000   0.000000  
45               411.100000 9.700000   0.000000   0.000000   0.000000  
50               433.810000 6.190000   0.000000   0.000000   0.000000  
51               430.100000 4.100000   0.000000   0.000000   0.000000  
52               425.370000 6.220000   0.000000   0.000000   0.000000  
53               423.010000 7.850000   0.000000   0.000000   0.000000  
54               403.980000 11.050000  0.000000   0.000000   0.000000  
6                435.260000 8.100000   0.000000   0.000000   0.000000  
60               413.500000 13.500000  0.000000   0.000000   0.000000  
61               410.940000 16.800000  0.000000   0.000000   0.000000  
62               407.020000 24.550000  0.000000   0.000000   0.000000  
63               403.240000 19.600000  0.000000   0.000000   0.000000  
70               437.790000 6.210000   0.000000   0.000000   0.000000  
71               436.640000 6.600000   0.000000   0.000000   0.000000  
72               435.730000 7.150000   0.000000   0.000000   0.000000  
73               436.200000 6.980000   0.000000   0.000000   0.000000  
8                470.990000 8.600000   0.000000   0.000000   0.000000  
80               443.080000 3.420000   0.000000   0.000000   0.000000  
81               431.960000 3.540000   0.000000   0.000000   0.000000  
83               445.720000 3.180000   0.000000   0.000000   0.000000  
84               441.520000 4.650000   0.000000   0.000000   0.000000  
86               442.080000 4.850000   0.000000   0.000000   0.000000  
87               435.540000 10.550000  0.000000   0.000000   0.000000  
9                469.130000 11.000000  0.000000   0.000000   0.000000  
PS-1             433.500000 4.000000   0.000000   100.000000 0.000000  
PS-2             441.500000 5.000000   0.000000   100.000000 0.000000  
PS-3             441.200000 4.550000   0.000000   100.000000 0.000000  
PS-4             400.440000 4.810000   0.000000   100.000000 0.000000  
PS-5             403.750000 4.500000   0.000000   100.000000 0.000000  
PS-6             397.130000 5.120000   0.000000   100.000000 0.000000  

[OUTFALLS]
;;Name           Elevation  Type       Stage Data       Gated    Route To        
;;-------------- ---------- ---------- ---------------- -------- ----------------
12               466.730000 FREE                        NO                       

[STORAGE]
;;Name           Elev.    MaxDepth   InitDepth  Shape      Curve Name/Params            N/A      Fevap    Psi      Ksat     IMD     
;;-------------- -------- ---------- ----------- ---------- ---------------------------- -------- --------          -------- --------
23               391.480000 2.500000   0.000000   FUNCTIONAL 25        0.000000  0.000000 0.000000 0.000000
41               399.850000 2.000000   0.000000   FUNCTIONAL 25        0.000000  0.000000 0.000000 0.000000
5                388.760000 3.500000   0.000000   FUNCTIONAL 25        0.000000  0.000000 0.000000 0.000000
7                430.670000 3.500000   0.000000   FUNCTIONAL 25        0.000000  0.000000 0.000000 0.000000
82               424.860000 4.140000   0.000000   FUNCTIONAL 25        0.000000  0.000000 0.000000 0.000000
85               428.030000 6.970000   0.000000   FUNCTIONAL 25        0.000000  0.000000 0.000000 0.000000

[CONDUITS]
;;Name           From Node        To Node          Length     Roughness  InOffset   OutOffset  InitFlow   MaxFlow   
;;-------------- ---------------- ---------------- ---------- ---------- ---------- ---------- ---------- ----------
C1               1                2                95.000000  0.013000   0.000000   0.000000   0.000000   0.000000  
C10              32               35               177.000000 0.013000   0.000000   0.200000   0.000000   0.000000  
C11              2                3                350.000000 0.013000   0.000000   0.100000   0.000000   0.000000  
C12              33               34               65.000000  0.013000   0.000000   0.100000   0.000000   0.000000  
C13              34               35               353.000000 0.013000   0.000000   0.100000   0.000000   0.000000  
C14              35               1                157.000000 0.013000   0.000000   0.450000   0.000000   0.000000  
C15              40               41               83.000000  0.013000   0.000000   0.000000   0.000000   0.000000  
C16              PS-4             42               1110.000000 0.013000   0.000000   0.100000   0.000000   0.000000  
C17              42               45               95.000000  0.013000   0.000000   0.100000   0.000000   0.000000  
C18              43               44               168.000000 0.013000   0.000000   0.100000   0.000000   0.000000  
C19              44               45               207.000000 0.013000   0.000000   0.050000   0.000000   0.000000  
C2               10               11               90.000000  0.013000   0.000000   0.100000   0.000000   0.000000  
C20              45               3                308.000000 0.013000   0.000000   0.200000   0.000000   0.000000  
C21              50               51               123.000000 0.013000   0.000000   0.100000   0.000000   0.000000  
C22              3                4                148.000000 0.013000   0.000000   0.100000   0.000000   0.000000  
C23              51               52               85.000000  0.013000   0.000000   0.100000   0.000000   0.000000  
C24              52               53               213.000000 0.013000   0.000000   0.150000   0.000000   0.000000  
C25              53               54               265.000000 0.013000   0.000000   0.080000   0.000000   0.000000  
C26              54               5                20.000000  0.013000   0.000000   12.120000  0.000000   0.000000  
C27              60               61               85.000000  0.013000   0.000000   0.100000   0.000000   0.000000  
C28              61               62               190.000000 0.013000   0.000000   0.150000   0.000000   0.000000  
C29              62               63               200.000000 0.013000   0.000000   0.000000   0.000000   0.000000  
C3               11               12               66.000000  0.013000   0.000000   -0.620000  0.000000   0.000000  
C30              63               5                220.000000 0.013000   0.000000   10.860000  0.000000   0.000000  
C31              70               71               10.000000  0.013000   0.000000   0.200000   0.000000   0.000000  
C32              71               72               113.000000 0.013000   0.000000   0.250000   0.000000   0.000000  
C33              4                5                179.000000 0.013000   0.000000   5.000000   0.000000   0.000000  
C34              72               73               87.000000  0.013000   0.000000   0.460000   0.000000   0.000000  
C35              73               6                50.000000  0.013000   0.360000   0.100000   0.000000   0.000000  
C36              80               82               567.000000 0.013000   0.000000   8.700000   0.000000   0.000000  
C37              81               82               20.000000  0.013000   0.000000   6.540000   0.000000   0.000000  
C38              PS-1             84               2043.000000 0.013000   0.000000   0.150000   0.000000   0.000000  
C39              83               84               172.000000 0.013000   0.000000   0.300000   0.000000   0.000000  
C4               21               22               65.000000  0.013000   0.000000   0.100000   0.000000   0.000000  
C40              84               85               40.000000  0.013000   0.000000   13.300000  0.000000   0.000000  
C41              PS-2             86               861.000000 0.013000   0.000000   0.200000   0.000000   0.000000  
C42              86               87               17.000000  0.013000   0.000000   0.450000   0.000000   0.000000  
C43              87               7                65.000000  0.013000   0.000000   4.520000   0.000000   0.000000  
C44              PS-5             6                1820.000000 0.013000   0.000000   0.400000   0.000000   0.000000  
C45              6                7                37.000000  0.013000   0.000000   4.410000   0.000000   0.000000  
C46              8                9                149.000000 0.013000   0.000000   0.150000   0.000000   0.000000  
C47              9                10               150.000000 0.013000   0.000000   0.200000   0.000000   0.000000  
; Splitted conduit
C48              PS-3             8                2474.000000 0.013000   0.000000   0.010000   0.000000   0.000000  
C5               22               23               55.000000  0.013000   0.000000   3.500000   0.000000   0.000000  
C6               PS-6             24               960.000000 0.013000   0.000000   0.050000   0.000000   0.000000  
C7               24               1                120.000000 0.013000   0.000000   0.150000   0.000000   0.000000  
C8               30               31               170.000000 0.013000   0.000000   0.210000   0.000000   0.000000  
C9               31               32               60.000000  0.013000   0.110000   0.100000   0.000000   0.000000  

[PUMPS]
;;Name           From Node        To Node          Pump Curve       Status   Sartup Shutoff 
;;-------------- ---------------- ---------------- ---------------- ------ -------- --------
PUMP1            82               PS-1             PUMP1CRV         ON       2.640000 1.140000
PUMP2            85               PS-2             PUMP2CRV         ON       3.470000 1.470000
PUMP3            7                PS-3             PUMP3CRV         ON       3.000000 1.000000
PUMP4            41               PS-4             PUMP4CRV         ON       1.500000 1.000000
PUMP5            5                PS-5             PUMP5CRV         ON       3.000000 1.000000
PUMP6            23               PS-6             PUMPCRV6         ON       2.000000 1.000000

[XSECTIONS]
;;Link           Shape        Geom1            Geom2      Geom3      Geom4      Barrels    Culvert   
;;-------------- ------------ ---------------- ---------- ---------- ---------- ---------- ----------
C1               CIRCULAR     0.666667         0.000000   0.000000   0.000000   1          0         
C10              CIRCULAR     0.500000         0.000000   0.000000   0.000000   1          0         
C11              CIRCULAR     0.666667         0.000000   0.000000   0.000000   1          0         
C12              CIRCULAR     0.500000         0.000000   0.000000   0.000000   1          0         
C13              CIRCULAR     0.666667         0.000000   0.000000   0.000000   1          0         
C14              CIRCULAR     0.666667         0.000000   0.000000   0.000000   1          0         
C15              CIRCULAR     0.500000         0.000000   0.000000   0.000000   1          0         
C16              CIRCULAR     0.125000         0.000000   0.000000   0.000000   1          0         
C17              CIRCULAR     0.666667         0.000000   0.000000   0.000000   1          0         
C18              CIRCULAR     0.500000         0.000000   0.000000   0.000000   1          0         
C19              CIRCULAR     0.500000         0.000000   0.000000   0.000000   1          0         
C2               CIRCULAR     0.666667         0.000000   0.000000   0.000000   1          0         
C20              CIRCULAR     0.666667         0.000000   0.000000   0.000000   1          0         
C21              CIRCULAR     0.500000         0.000000   0.000000   0.000000   1          0         
C22              CIRCULAR     0.666667         0.000000   0.000000   0.000000   1          0         
C23              CIRCULAR     0.500000         0.000000   0.000000   0.000000   1          0         
C24              CIRCULAR     0.500000         0.000000   0.000000   0.000000   1          0         
C25              CIRCULAR     0.500000         0.000000   0.000000   0.000000   1          0         
C26              CIRCULAR     0.500000         0.000000   0.000000   0.000000   1          0         
C27              CIRCULAR     0.333333         0.000000   0.000000   0.000000   1          0         
C28              CIRCULAR     0.333333         0.000000   0.000000   0.000000   1          0         
C29              CIRCULAR     0.333333         0.000000   0.000000   0.000000   1          0         
C3               CIRCULAR     0.666667         0.000000   0.000000   0.000000   1          0         
C30              CIRCULAR     0.333333         0.000000   0.000000   0.000000   1          0         
C31              CIRCULAR     0.500000         0.000000   0.000000   0.000000   1          0         
C32              CIRCULAR     0.666667         0.000000   0.000000   0.000000   1          0         
C33              CIRCULAR     0.666667         0.000000   0.000000   0.000000   1          0         
C34              CIRCULAR     0.666667         0.000000   0.000000   0.000000   1          0         
C35              CIRCULAR     0.666667         0.000000   0.000000   0.000000   1          0         
C36              CIRCULAR     0.333333         0.000000   0.000000   0.000000   1          0         
C37              CIRCULAR     0.333333         0.000000   0.000000   0.000000   1          0         
C38              FORCE_MAIN   0.125000         150.000000 0.000000   0.000000   1          0         
C39              CIRCULAR     0.333333         0.000000   0.000000   0.000000   1          0         
C4               CIRCULAR     0.500000         0.000000   0.000000   0.000000   1          0         
C40              CIRCULAR     0.333333         0.000000   0.000000   0.000000   1          0         
C41              FORCE_MAIN   0.125000         150.000000 0.000000   0.000000   1          0         
C42              CIRCULAR     0.500000         0.000000   0.000000   0.000000   1          0         
C43              CIRCULAR     0.500000         0.000000   0.000000   0.000000   1          0         
C44              FORCE_MAIN   0.333333         150.000000 0.000000   0.000000   1          0         
C45              CIRCULAR     0.666667         0.000000   0.000000   0.000000   1          0         
C46              CIRCULAR     0.666667         0.000000   0.000000   0.000000   1          0         
C47              CIRCULAR     0.666667         0.000000   0.000000   0.000000   1          0         
C48              FORCE_MAIN   0.500000         150.000000 0.000000   0.000000   1          0         
C5               CIRCULAR     0.500000         0.000000   0.000000   0.000000   1          0         
C6               FORCE_MAIN   0.166667         150.000000 0.000000   0.000000   1          0         
C7               CIRCULAR     0.666667         0.000000   0.000000   0.000000   1          0         
C8               CIRCULAR     0.500000         0.000000   0.000000   0.000000   1          0         
C9               CIRCULAR     0.500000         0.000000   0.000000   0.000000   1          0         

[LOSSES]
;;Link           Kentry     Kexit      Kavg       Flap Gate  Seepage   
;;-------------- ---------- ---------- ---------- ---------- ----------
C1               0.000000   0.000000   0.000000   NO         0.000000  
C10              0.000000   0.000000   0.000000   NO         0.000000  
C11              0.000000   0.000000   0.000000   NO         0.000000  
C12              0.000000   0.000000   0.000000   NO         0.000000  
C13              0.000000   0.000000   0.000000   NO         0.000000  
C14              0.000000   0.000000   0.000000   NO         0.000000  
C15              0.000000   0.000000   0.000000   NO         0.000000  
C16              0.000000   0.000000   0.000000   NO         0.000000  
C17              0.000000   0.000000   0.000000   NO         0.000000  
C18              0.000000   0.000000   0.000000   NO         0.000000  
C19              0.000000   0.000000   0.000000   NO         0.000000  
C2               0.000000   0.000000   0.000000   YES        0.000000  
C20              0.000000   0.000000   0.000000   NO         0.000000  
C21              0.000000   0.000000   0.000000   NO         0.000000  
C22              0.000000   0.000000   0.000000   NO         0.000000  
C23              0.000000   0.000000   0.000000   NO         0.000000  
C24              0.000000   0.000000   0.000000   NO         0.000000  
C25              0.000000   0.000000   0.000000   NO         0.000000  
C26              0.000000   0.000000   0.000000   NO         0.000000  
C27              0.000000   0.000000   0.000000   NO         0.000000  
C28              0.000000   0.000000   0.000000   NO         0.000000  
C29              0.000000   0.000000   0.000000   NO         0.000000  
C3               0.000000   0.000000   0.000000   YES        0.000000  
C30              0.000000   0.000000   0.000000   NO         0.000000  
C31              0.000000   0.000000   0.000000   NO         0.000000  
C32              0.000000   0.000000   0.000000   NO         0.000000  
C33              0.000000   0.000000   0.000000   NO         0.000000  
C34              0.000000   0.000000   0.000000   NO         0.000000  
C35              0.000000   0.000000   0.000000   NO         0.000000  
C36              0.000000   0.000000   0.000000   NO         0.000000  
C37              0.000000   0.000000   0.000000   NO         0.000000  
C38              0.000000   0.000000   0.000000   YES        0.000000  
C39              0.000000   0.000000   0.000000   NO         0.000000  
C4               0.000000   0.000000   0.000000   NO         0.000000  
C40              0.000000   0.000000   0.000000   NO         0.000000  
C41              0.000000   0.000000   0.000000   YES        0.000000  
C42              0.000000   0.000000   0.000000   NO         0.000000  
C43              0.000000   0.000000   0.000000   NO         0.000000  
C44              0.000000   0.000000   0.000000   YES        0.000000  
C45              0.000000   0.000000   0.000000   NO         0.000000  
C46              0.000000   0.000000   0.000000   YES        0.000000  
C47              0.000000   0.000000   0.000000   NO         0.000000  
C48              0.000000   0.000000   0.000000   YES        0.000000  
C5               0.000000   0.000000   0.000000   NO         0.000000  
C6               0.000000   0.000000   0.000000   YES        0.000000  
C7               0.000000   0.000000   0.000000   NO         0.000000  
C8               0.000000   0.000000   0.000000   NO         0.000000  
C9               0.000000   0.000000   0.000000   NO         0.000000  

[CONTROLS]


[INFLOWS]
;;Node           Constituent      Time Series      Type     Mfactor  Sfactor  Baseline Pattern
;;-------------- ---------------- ---------------- -------- -------- -------- -------- --------
40               FLOW             ""               FLOW     1.0      1.0      1       

[DWF]
;;Node           Constituent      Baseline   Patterns  
;;-------------- ---------------- ---------- ----------
21               Flow             0.690000   "" "" ""
30               Flow             1.600000   "" "" ""
33               Flow             2.320000   "" "" ""
40               FLOW             0.280000   "" "" ""
50               Flow             0.560000   "" "" ""
70               Flow             0.090000   "" "" ""
72               Flow             2.830000   "" "" ""
73               Flow             8.760000   "" "" ""
80               Flow             0.080000   "" "" ""
81               Flow             0.160000   "" "" ""
83               Flow             0.170000   "" "" ""

[CURVES]
;;Name           Type       X-Value    Y-Value   
;;-------------- ---------- ---------- ----------
PUMP1CRV         PUMP2      0.000000   0.000000  
PUMP1CRV                    1.140000   40.000000 
PUMP1CRV                    2.640000   80.000000 
;
PUMP2CRV         PUMP2      0.000000   0.000000  
PUMP2CRV                    1.470000   40.000000 
PUMP2CRV                    3.470000   80.000000 
;
PUMP3CRV         PUMP2      0.000000   0.000000  
PUMP3CRV                    1.000000   200.000000
PUMP3CRV                    3.000000   400.000000
;
PUMP4CRV         PUMP2      0.000000   0.000000  
PUMP4CRV                    1.000000   11.000000 
PUMP4CRV                    1.500000   22.000000 
;
PUMP5CRV         PUMP2      0.000000   0.000000  
PUMP5CRV                    1.000000   145.000000
PUMP5CRV                    3.000000   290.000000
;
PUMPCRV6         PUMP2      0.000000   0.000000  
PUMPCRV6                    1.000000   35.000000 
PUMPCRV6                    2.000000   70.000000 

[REPORT]
;;Reporting Options
INPUT      NO
CONTROLS   NO
SUBCATCHMENTS ALL
NODES ALL
LINKS ALL

[TAGS]

[MAP]
DIMENSIONS 1222981.241 539166.419 1229181.896 542123.618
Units      None

[COORDINATES]
;;Node           X-Coord            Y-Coord           
;;-------------- ------------------ ------------------
1                1224214.695        540765.975        
10               1228736.640        540851.901        
11               1228819.973        540893.568        
2                1224356.839        540748.614        
21               1223263.089        540188.718        
22               1223272.855        540239.717        
24               1224059.973        540724.730        
3                1224714.912        540742.104        
30               1224184.604        541417.742        
31               1224200.589        541211.939        
32               1224201.762        541166.637        
33               1223739.434        540935.246        
34               1223811.049        540940.671        
35               1224214.695        540946.097        
4                1224876.587        540711.722        
40               1225557.533        541989.200        
42               1224967.489        541208.730        
43               1224705.103        541480.519        
44               1224838.149        541299.876        
45               1224932.012        541162.286        
50               1225126.153        539908.987        
51               1224984.660        539932.425        
52               1224962.959        540032.251        
53               1224942.125        540218.883        
54               1224844.674        540433.436        
6                1226336.266        540804.994        
60               1225513.861        540417.049        
61               1225426.361        540384.410        
62               1225241.986        540364.271        
63               1225070.111        540393.785        
70               1226396.017        541016.341        
71               1226384.851        541006.291        
72               1226300.531        540930.404        
73               1226295.323        540867.904        
8                1228468.355        541022.114        
80               1228431.492        539324.997        
81               1228886.442        539300.838        
83               1226828.325        539895.065        
84               1226848.117        540048.711        
86               1226404.960        540768.951        
87               1226384.799        540774.882        
9                1228611.640        540914.401        
PS-1             1228900.048        539309.090        
PS-2             1226829.060        540059.304        
PS-3             1226356.491        540789.400        
PS-4             1225444.419        541936.854        
PS-5             1224884.198        540413.185        
PS-6             1223316.446        540289.400        
12               1228849.487        540971.693        
23               1223301.066        540274.439        
41               1225467.256        541961.422        
5                1224874.417        540444.578        
7                1226348.592        540783.467        
82               1228897.292        539307.348        
85               1226827.805        540049.752        

[VERTICES]
;;Link           X-Coord            Y-Coord           
;;-------------- ------------------ ------------------
C16              1225426.257        541920.969        
C16              1225439.277        541595.449        
C16              1225426.257        541506.473        
C16              1225391.534        541437.028        
C16              1225252.645        541389.285        
C16              1225113.757        541322.011        
C36              1228470.554        539323.695        
C36              1228531.752        539384.893        
C36              1228849.114        539368.487        
C38              1228908.143        539313.858        
C38              1228751.676        539504.180        
C38              1228574.593        539500.707        
C38              1228366.259        539512.860        
C38              1228244.732        539518.068        
C38              1228138.829        539577.096        
C38              1228048.551        539696.280        
C38              1227948.725        539823.884        
C38              1227861.051        539947.148        
C38              1227814.176        539988.815        
C38              1227750.808        540028.746        
C38              1227671.815        540055.655        
C38              1227607.579        540050.447        
C38              1227546.815        540027.877        
C38              1227482.579        540000.968        
C38              1227412.266        539981.002        
C38              1227314.176        539985.343        
C38              1227243.864        540014.857        
C41              1226852.805        540238.294        
C41              1226812.968        540245.933        
C44              1224893.502        540385.693        
C44              1224954.266        540285.867        
C44              1225035.646        540195.806        
C44              1225122.452        540187.125        
C44              1225325.360        540205.572        
C44              1225538.033        540269.591        
C44              1225760.472        540375.927        
C48              1226371.264        540801.273        
C48              1226568.950        540546.989        
C48              1226922.582        540462.733        
C48              1227342.504        540779.573        
C48              1227607.261        540902.186        
C48              1227937.122        541029.139        
C48              1228264.813        541199.495        
C48              1228338.597        541172.368        
C6               1223360.321        540332.542        
C6               1223401.987        540343.653        
C6               1223510.321        540342.959        
C6               1223698.515        540423.514        
C6               1223788.098        540419.348        
C6               1223851.293        540453.375        
C6               1223902.682        540568.653        
C6               1223967.959        540657.889        

