[OPTIONS]
;Option and Files Scenario Set: BASE, Base Simulation Options
FLOW_UNITS		GPM
INFILTRATION		HORTON
FLOW_ROUTING		DYNWAVE
LINK_OFFSETS		DEPTH
MIN_SLOPE		0.000000
ALLOW_PONDING		YES
SKIP_STEADY_STATE 	NO
IGNORE_RAINFALL		YES
IGNORE_SNOWMELT		YES
IGNORE_GROUNDWATER	YES
IGNORE_QUALITY		YES

START_DATE		01/01/2002
START_TIME		00:00
REPORT_START_DATE	01/01/2002
REPORT_START_TIME	00:00
END_DATE		01/03/2002
END_TIME		00:00
SWEEP_START		01/01
SWEEP_END		12/31
DRY_DAYS		5.000000
REPORT_STEP		00:05:00
WET_STEP		00:05:00
DRY_STEP		01:00:00
ROUTING_STEP		15

INERTIAL_DAMPING	PARTIAL
NORMAL_FLOW_LIMITED	BOTH
FORCE_MAIN_EQUATION	H-W
VARIABLE_STEP		0.900000
LENGTHENING_STEP	1
MIN_SURFAREA		0.000000
MAX_TRIALS		8
HEAD_TOLERANCE	0.005000
MINIMUM_STEP		0.000000


[FILES]

[RAINGAGES]

[HYDROGRAPHS]

[TEMPERATURE]

[SUBCATCHMENTS]

[SUBAREAS]

[INFILTRATION]

[AQUIFERS]

[GROUNDWATER]

[GWF]

[SNOWPACKS]

[JUNCTIONS]
1004	1015.841000	24.600000	0.000000	0.000000	0.000000
1005	1016.162000	23.450000	0.000000	0.000000	0.000000
1006	1016.592000	23.140000	0.000000	0.000000	0.000000
1013	1018.383000	21.050000	0.000000	0.000000	0.000000
1014	1017.377000	23.600000	0.000000	0.000000	0.000000
1015	1017.880000	22.420000	0.000000	0.000000	0.000000
1016	1019.112000	23.120000	0.000000	0.000000	0.000000
1017	1020.072000	23.240000	0.000000	0.000000	0.000000
1019	1015.247000	24.330000	0.000000	0.000000	0.000000
1078	1040.440000	10.320000	0.000000	0.000000	0.000000
1092	1015.484000	13.530000	0.000000	0.000000	0.000000
1099	1006.808000	5.840000	0.000000	0.000000	0.000000
11	1011.129000	25.660000	0.000000	0.000000	0.000000
1101	1008.612000	12.630000	0.000000	0.000000	0.000000
1102	1009.247000	13.560000	0.000000	0.000000	0.000000
1105	1009.980000	12.870000	0.000000	0.000000	0.000000
1106	1010.095000	12.340000	0.000000	0.000000	0.000000
111	1043.151000	15.860000	0.000000	0.000000	0.000000
1111	1010.904000	12.180000	0.000000	0.000000	0.000000
1112	1011.277000	10.380000	0.000000	0.000000	0.000000
1113	1011.416000	11.120000	0.000000	0.000000	0.000000
112	1042.636000	15.740000	0.000000	0.000000	0.000000
1122	1011.933000	10.320000	0.000000	0.000000	0.000000
1124	1012.770000	12.190000	0.000000	0.000000	0.000000
1127	1013.976000	11.280000	0.000000	0.000000	0.000000
113	1041.922000	14.720000	0.000000	0.000000	0.000000
1133	1015.428000	11.040000	0.000000	0.000000	0.000000
114	1041.372000	15.600000	0.000000	0.000000	0.000000
1145	1015.693000	10.080000	0.000000	0.000000	0.000000
1146	1016.955000	10.720000	0.000000	0.000000	0.000000
1147	1017.944000	10.452000	0.000000	0.000000	0.000000
1148	1018.046000	10.350000	0.000000	0.000000	0.000000
115	1041.003000	14.670000	0.000000	0.000000	0.000000
1152	1027.603000	10.650000	0.000000	0.000000	0.000000
1153	989.911000	10.300000	0.000000	0.000000	0.000000
1155	990.588000	12.910000	0.000000	0.000000	0.000000
1156	992.609000	11.390000	0.000000	0.000000	0.000000
1157	995.253000	9.590000	0.000000	0.000000	0.000000
1158	999.441000	11.330000	0.000000	0.000000	0.000000
1159	999.977000	9.600000	0.000000	0.000000	0.000000
116	1040.726000	14.400000	0.000000	0.000000	0.000000
1160	1000.133000	8.900000	0.000000	0.000000	0.000000
1161	1003.444000	20.416000	0.000000	0.000000	0.000000
1162	1007.730000	16.130000	0.000000	0.000000	0.000000
1163	1008.248000	17.181000	0.000000	0.000000	0.000000
1164	1008.769000	19.200000	0.000000	0.000000	0.000000
1165	1009.328000	20.100000	0.000000	0.000000	0.000000
1166	1009.868000	24.605000	0.000000	0.000000	0.000000
1167	1010.402000	20.280000	0.000000	0.000000	0.000000
1168	1011.037000	22.830000	0.000000	0.000000	0.000000
1169	1013.752000	25.380000	0.000000	0.000000	0.000000
117	1040.545000	14.070000	0.000000	0.000000	0.000000
1170	1013.315000	25.950000	0.000000	0.000000	0.000000
1171	1012.620000	23.700000	0.000000	0.000000	0.000000
1172	1011.556000	25.600000	0.000000	0.000000	0.000000
1173	1011.715000	25.441000	0.000000	0.000000	0.000000
1174	1011.958000	22.950000	0.000000	0.000000	0.000000
1175	1012.372000	21.675000	0.000000	0.000000	0.000000
1176	1012.800000	22.180000	0.000000	0.000000	0.000000
1177	1013.116000	20.550000	0.000000	0.000000	0.000000
1178	1013.623000	16.930000	0.000000	0.000000	0.000000
1179	1014.206000	15.890000	0.000000	0.000000	0.000000
118	1040.270000	14.060000	0.000000	0.000000	0.000000
1180	1014.814000	12.880000	0.000000	0.000000	0.000000
1181	1015.397000	9.610000	0.000000	0.000000	0.000000
1182	1015.905000	9.450000	0.000000	0.000000	0.000000
1184	1035.896000	12.380000	0.000000	0.000000	0.000000
1185	1033.988000	16.050000	0.000000	0.000000	0.000000
1186	1033.055000	13.330000	0.000000	0.000000	0.000000
1187	1032.485000	14.010000	0.000000	0.000000	0.000000
1188	1031.448000	13.420000	0.000000	0.000000	0.000000
1189	1030.247000	12.590000	0.000000	0.000000	0.000000
119	1040.041000	15.250000	0.000000	0.000000	0.000000
1190	1027.853000	11.640000	0.000000	0.000000	0.000000
1191	1029.239000	11.400000	0.000000	0.000000	0.000000
1192	1028.665000	13.550000	0.000000	0.000000	0.000000
1193	1025.773000	17.600000	0.000000	0.000000	0.000000
1196	1016.566000	9.890000	0.000000	0.000000	0.000000
1197	1017.178000	10.490000	0.000000	0.000000	0.000000
1198	1023.993000	13.080000	0.000000	0.000000	0.000000
120	1039.777000	16.380000	0.000000	0.000000	0.000000
121	1038.970000	16.570000	0.000000	0.000000	0.000000
1216	992.707000	10.330000	0.000000	0.000000	0.000000
1217	992.938000	9.930000	0.000000	0.000000	0.000000
1218	993.777000	9.120000	0.000000	0.000000	0.000000
122	1038.525000	16.520000	0.000000	0.000000	0.000000
123	1035.585000	20.100000	0.000000	0.000000	0.000000
124	1038.789000	16.350000	0.000000	0.000000	0.000000
125	1038.173000	17.310000	0.000000	0.000000	0.000000
126	1037.724000	12.520000	0.000000	0.000000	0.000000
1261	1009.864000	23.010000	0.000000	0.000000	0.000000
1262	1009.414000	27.600000	0.000000	0.000000	0.000000
1263	1009.235000	26.900000	0.000000	0.000000	0.000000
1264	1008.357000	21.600000	0.000000	0.000000	0.000000
127	1036.822000	13.840000	0.000000	0.000000	0.000000
1285	994.128000	8.800000	0.000000	0.000000	0.000000
1286	994.899000	7.760000	0.000000	0.000000	0.000000
1288	995.520000	10.050000	0.000000	0.000000	0.000000
129	1036.600000	20.880000	0.000000	0.000000	0.000000
1294	1003.297000	4.950000	0.000000	0.000000	0.000000
1297	999.848000	6.195000	0.000000	0.000000	0.000000
1299	996.068000	8.500000	0.000000	0.000000	0.000000
130	1036.256000	19.820000	0.000000	0.000000	0.000000
1300	996.610000	13.350000	0.000000	0.000000	0.000000
1301	997.006000	14.640000	0.000000	0.000000	0.000000
1303	997.533000	10.420000	0.000000	0.000000	0.000000
1304	1002.093000	3.950000	0.000000	0.000000	0.000000
131	1035.914000	19.150000	0.000000	0.000000	0.000000
132	1035.309000	20.650000	0.000000	0.000000	0.000000
1329	1010.270000	22.630000	0.000000	0.000000	0.000000
133	1034.017000	24.160000	0.000000	0.000000	0.000000
1330	1010.608000	21.230000	0.000000	0.000000	0.000000
1331	1010.739000	22.520000	0.000000	0.000000	0.000000
1332	1010.775000	18.350000	0.000000	0.000000	0.000000
1337	1011.114000	24.010000	0.000000	0.000000	0.000000
1338	1011.337000	24.040000	0.000000	0.000000	0.000000
1339	1016.600000	16.980000	0.000000	0.000000	0.000000
134	1034.779000	20.530000	0.000000	0.000000	0.000000
1343	1017.505000	17.700000	0.000000	0.000000	0.000000
1347	1017.109000	16.040000	0.000000	0.000000	0.000000
1348	1018.006000	19.720000	0.000000	0.000000	0.000000
1372	1005.147000	12.220000	0.000000	0.000000	0.000000
1378	1003.694000	10.160000	0.000000	0.000000	0.000000
1379	1006.051000	12.190000	0.000000	0.000000	0.000000
14	1032.316000	18.400000	0.000000	0.000000	0.000000
1400	1038.477000	26.810000	0.000000	0.000000	0.000000
1401	1039.500000	15.430000	0.000000	0.000000	0.000000
1448	1014.818000	10.790000	0.000000	0.000000	0.000000
1449	1015.341000	12.170000	0.000000	0.000000	0.000000
1453	1015.670000	11.300000	0.000000	0.000000	0.000000
1477	1016.744000	10.850000	0.000000	0.000000	0.000000
1478	1016.126000	11.580000	0.000000	0.000000	0.000000
1480	1017.470000	9.590000	0.000000	0.000000	0.000000
15	1031.350000	18.110000	0.000000	0.000000	0.000000
1500	1019.130000	10.050000	0.000000	0.000000	0.000000
1505	1024.429000	12.700000	0.000000	0.000000	0.000000
1508	1024.961000	11.490000	0.000000	0.000000	0.000000
1515	1025.644000	10.720000	0.000000	0.000000	0.000000
1519	1028.559000	9.600000	0.000000	0.000000	0.000000
1520	1026.678000	9.770000	0.000000	0.000000	0.000000
1524	1008.306000	18.010000	0.000000	0.000000	0.000000
1535	1019.902000	26.770000	0.000000	0.000000	0.000000
1536	1019.165000	30.950000	0.000000	0.000000	0.000000
1537	1018.790000	35.620000	0.000000	0.000000	0.000000
1538	1018.413000	28.720000	0.000000	0.000000	0.000000
1539	1018.293000	26.040000	0.000000	0.000000	0.000000
1540	1017.665000	25.910000	0.000000	0.000000	0.000000
1541	1020.232000	25.400000	0.000000	0.000000	0.000000
1542	1020.274000	24.520000	0.000000	0.000000	0.000000
1543	1020.487000	23.140000	0.000000	0.000000	0.000000
1544	1022.140000	27.668000	0.000000	0.000000	0.000000
1545	1022.730000	30.363000	0.000000	0.000000	0.000000
1546	1020.624000	21.980000	0.000000	0.000000	0.000000
1547	1021.001000	24.970000	0.000000	0.000000	0.000000
1548	1021.220000	25.772000	0.000000	0.000000	0.000000
1549	1021.740000	27.102000	0.000000	0.000000	0.000000
1550	1022.920000	31.452000	0.000000	0.000000	0.000000
1551	1022.950000	29.412000	0.000000	0.000000	0.000000
1552	1023.140000	29.523000	0.000000	0.000000	0.000000
1553	1023.700000	29.300000	0.000000	0.000000	0.000000
1554	1024.073000	30.480000	0.000000	0.000000	0.000000
1555	1029.731000	23.420000	0.000000	0.000000	0.000000
1556	1029.011000	23.570000	0.000000	0.000000	0.000000
1557	1028.446000	22.860000	0.000000	0.000000	0.000000
1558	1027.571000	22.830000	0.000000	0.000000	0.000000
1559	1026.890000	21.760000	0.000000	0.000000	0.000000
1560	1025.991000	24.050000	0.000000	0.000000	0.000000
1561	1025.840000	23.000000	0.000000	0.000000	0.000000
1562	1025.565000	24.680000	0.000000	0.000000	0.000000
1563	1025.285000	23.420000	0.000000	0.000000	0.000000
1564	1024.662000	26.620000	0.000000	0.000000	0.000000
1565	1024.752000	25.620000	0.000000	0.000000	0.000000
1566	1024.779000	24.960000	0.000000	0.000000	0.000000
1567	1025.121000	25.410000	0.000000	0.000000	0.000000
1568	1025.351000	25.340000	0.000000	0.000000	0.000000
1569	1024.216000	27.300000	0.000000	0.000000	0.000000
1570	1024.199000	29.400000	0.000000	0.000000	0.000000
1571	1025.369000	26.230000	0.000000	0.000000	0.000000
1572	1025.788000	24.250000	0.000000	0.000000	0.000000
1575	1030.744000	18.520000	0.000000	0.000000	0.000000
1576	1030.213000	18.550000	0.000000	0.000000	0.000000
1577	1029.766000	18.160000	0.000000	0.000000	0.000000
1578	1028.157000	20.800000	0.000000	0.000000	0.000000
1579	1027.546000	21.300000	0.000000	0.000000	0.000000
1580	1027.067000	20.400000	0.000000	0.000000	0.000000
1581	1026.388000	26.120000	0.000000	0.000000	0.000000
1582	1014.677000	29.440000	0.000000	0.000000	0.000000
1583	1016.340000	25.340000	0.000000	0.000000	0.000000
1584	1017.152000	25.170000	0.000000	0.000000	0.000000
1585	1017.544000	25.030000	0.000000	0.000000	0.000000
1586	1013.962000	30.120000	0.000000	0.000000	0.000000
1587	1014.439000	29.010000	0.000000	0.000000	0.000000
1588	1009.991000	24.710000	0.000000	0.000000	0.000000
1589	1010.531000	26.270000	0.000000	0.000000	0.000000
1590	1011.545000	28.560000	0.000000	0.000000	0.000000
1591	1011.823000	31.200000	0.000000	0.000000	0.000000
1592	1011.977000	35.650000	0.000000	0.000000	0.000000
1593	1009.457000	27.190000	0.000000	0.000000	0.000000
1594	1008.805000	25.490000	0.000000	0.000000	0.000000
1595	1008.633000	23.800000	0.000000	0.000000	0.000000
1596	1008.101000	22.070000	0.000000	0.000000	0.000000
1597	1003.473000	20.387000	0.000000	0.000000	0.000000
1598	1011.877000	37.300000	0.000000	0.000000	0.000000
1599	1013.013000	39.250000	0.000000	0.000000	0.000000
16	1030.679000	19.940000	0.000000	0.000000	0.000000
1600	1013.168000	30.900000	0.000000	0.000000	0.000000
1601	1013.351000	30.820000	0.000000	0.000000	0.000000
1602	1013.394000	32.180000	0.000000	0.000000	0.000000
1613	1028.641000	17.470000	0.000000	0.000000	0.000000
1614	1027.899000	18.550000	0.000000	0.000000	0.000000
1615	1027.282000	20.550000	0.000000	0.000000	0.000000
1616	1026.379000	19.750000	0.000000	0.000000	0.000000
1617	1025.523000	18.800000	0.000000	0.000000	0.000000
1618	1024.972000	20.330000	0.000000	0.000000	0.000000
1619	1024.285000	21.020000	0.000000	0.000000	0.000000
1620	1023.465000	22.780000	0.000000	0.000000	0.000000
1621	1022.648000	22.380000	0.000000	0.000000	0.000000
1622	1021.938000	24.350000	0.000000	0.000000	0.000000
1639	1022.158000	16.710000	0.000000	0.000000	0.000000
1641	1020.861000	16.200000	0.000000	0.000000	0.000000
1642	1020.540000	17.440000	0.000000	0.000000	0.000000
17	1030.236000	21.040000	0.000000	0.000000	0.000000
1712	1028.124000	15.620000	0.000000	0.000000	0.000000
1714	1028.320000	15.920000	0.000000	0.000000	0.000000
1715	1029.032000	13.660000	0.000000	0.000000	0.000000
1716	1029.319000	12.930000	0.000000	0.000000	0.000000
1717	1030.756000	13.330000	0.000000	0.000000	0.000000
1719	1025.262000	15.900000	0.000000	0.000000	0.000000
172	1009.259000	18.390000	0.000000	0.000000	0.000000
1720	1025.784000	16.200000	0.000000	0.000000	0.000000
1721	1026.504000	16.360000	0.000000	0.000000	0.000000
1722	1027.057000	15.470000	0.000000	0.000000	0.000000
1723	1027.873000	18.250000	0.000000	0.000000	0.000000
1724	1028.670000	18.380000	0.000000	0.000000	0.000000
1729	1031.178000	10.890000	0.000000	0.000000	0.000000
173	1008.932000	18.620000	0.000000	0.000000	0.000000
1730	1031.974000	10.790000	0.000000	0.000000	0.000000
1731	1032.519000	14.090000	0.000000	0.000000	0.000000
1732	1033.246000	15.300000	0.000000	0.000000	0.000000
1737	1026.631000	11.650000	0.000000	0.000000	0.000000
1738	1025.992000	13.550000	0.000000	0.000000	0.000000
1740	1011.235000	28.100000	0.000000	0.000000	0.000000
1741	1013.472000	25.850000	0.000000	0.000000	0.000000
1749	1016.897000	27.010000	0.000000	0.000000	0.000000
175	1012.807000	17.150000	0.000000	0.000000	0.000000
1750	1017.396000	25.410000	0.000000	0.000000	0.000000
1751	1018.021000	23.780000	0.000000	0.000000	0.000000
1752	1018.757000	23.510000	0.000000	0.000000	0.000000
1753	1019.418000	23.110000	0.000000	0.000000	0.000000
1756	1022.145000	22.262000	0.000000	0.000000	0.000000
1757	1021.653000	20.960000	0.000000	0.000000	0.000000
1758	1021.123000	20.600000	0.000000	0.000000	0.000000
1759	1020.691000	21.280000	0.000000	0.000000	0.000000
176	1009.585000	18.130000	0.000000	0.000000	0.000000
177	1011.758000	16.250000	0.000000	0.000000	0.000000
1777	1027.776000	22.090000	0.000000	0.000000	0.000000
178	1010.665000	16.350000	0.000000	0.000000	0.000000
1780	1031.071000	16.120000	0.000000	0.000000	0.000000
1781	1034.399000	14.520000	0.000000	0.000000	0.000000
1782	1039.417000	13.100000	0.000000	0.000000	0.000000
1785	1010.552000	12.448000	0.000000	0.000000	0.000000
179	1013.941000	15.550000	0.000000	0.000000	0.000000
18	1028.105000	23.680000	0.000000	0.000000	0.000000
181	1033.476000	11.000000	0.000000	0.000000	0.000000
182	1031.801000	15.150000	0.000000	0.000000	0.000000
183	1034.007000	9.660000	0.000000	0.000000	0.000000
184	1034.387000	9.510000	0.000000	0.000000	0.000000
185	1033.772000	10.170000	0.000000	0.000000	0.000000
186	1033.247000	11.470000	0.000000	0.000000	0.000000
187	1033.108000	11.500000	0.000000	0.000000	0.000000
188	1032.695000	11.180000	0.000000	0.000000	0.000000
189	1032.237000	12.850000	0.000000	0.000000	0.000000
19	1029.068000	23.820000	0.000000	0.000000	0.000000
190	1031.711000	15.160000	0.000000	0.000000	0.000000
191	1031.522000	16.050000	0.000000	0.000000	0.000000
192	1031.366000	16.950000	0.000000	0.000000	0.000000
193	1032.423000	16.330000	0.000000	0.000000	0.000000
194	1032.761000	16.960000	0.000000	0.000000	0.000000
195	1033.304000	15.740000	0.000000	0.000000	0.000000
198	1027.540000	13.230000	0.000000	0.000000	0.000000
201	1028.946000	12.000000	0.000000	0.000000	0.000000
202	1027.975000	12.350000	0.000000	0.000000	0.000000
203	1028.630000	11.620000	0.000000	0.000000	0.000000
210	1024.173000	17.185000	0.000000	0.000000	0.000000
211	1024.658000	16.700000	0.000000	0.000000	0.000000
212	1024.934000	16.750000	0.000000	0.000000	0.000000
213	1025.817000	14.880000	0.000000	0.000000	0.000000
214	1026.470000	13.200000	0.000000	0.000000	0.000000
215	1026.682000	13.030000	0.000000	0.000000	0.000000
217	1000.186000	22.040000	0.000000	0.000000	0.000000
218	1006.880000	16.450000	0.000000	0.000000	0.000000
219	1007.241000	16.619000	0.000000	0.000000	0.000000
220	1003.086000	9.410000	0.000000	0.000000	0.000000
221	997.875000	8.890000	0.000000	0.000000	0.000000
225	1012.517000	21.530000	0.000000	0.000000	0.000000
226	1024.136000	16.250000	0.000000	0.000000	0.000000
227	1024.967000	11.330000	0.000000	0.000000	0.000000
228	1024.192000	13.510000	0.000000	0.000000	0.000000
229	1023.039000	18.980000	0.000000	0.000000	0.000000
230	1025.145000	12.010000	0.000000	0.000000	0.000000
231	1025.195000	10.410000	0.000000	0.000000	0.000000
232	1025.829000	11.150000	0.000000	0.000000	0.000000
233	1026.259000	11.490000	0.000000	0.000000	0.000000
234	1024.914000	12.820000	0.000000	0.000000	0.000000
235	1024.508000	14.250000	0.000000	0.000000	0.000000
236	1024.877000	13.430000	0.000000	0.000000	0.000000
237	1025.327000	11.520000	0.000000	0.000000	0.000000
238	1023.020000	20.440000	0.000000	0.000000	0.000000
242	1067.072000	19.820000	0.000000	0.000000	0.000000
243	1067.587000	18.010000	0.000000	0.000000	0.000000
244	1068.196000	10.650000	0.000000	0.000000	0.000000
245	1066.087000	17.700000	0.000000	0.000000	0.000000
246	1067.127000	10.850000	0.000000	0.000000	0.000000
286	1029.150000	18.180000	0.000000	0.000000	0.000000
287	1028.855000	18.120000	0.000000	0.000000	0.000000
288	1029.515000	19.330000	0.000000	0.000000	0.000000
289	1032.777000	13.680000	0.000000	0.000000	0.000000
29	1024.284000	14.330000	0.000000	0.000000	0.000000
290	1032.054000	12.950000	0.000000	0.000000	0.000000
291	1033.554000	10.500000	0.000000	0.000000	0.000000
292	1031.665000	13.630000	0.000000	0.000000	0.000000
293	1031.411000	14.800000	0.000000	0.000000	0.000000
294	1031.044000	14.380000	0.000000	0.000000	0.000000
295	1031.115000	15.520000	0.000000	0.000000	0.000000
296	1031.264000	14.390000	0.000000	0.000000	0.000000
297	1031.690000	16.400000	0.000000	0.000000	0.000000
3	1024.328000	19.020000	0.000000	0.000000	0.000000
302	1030.391000	17.920000	0.000000	0.000000	0.000000
303	1029.721000	19.510000	0.000000	0.000000	0.000000
304	1029.920000	18.680000	0.000000	0.000000	0.000000
332	1030.575000	18.110000	0.000000	0.000000	0.000000
333	1030.657000	18.720000	0.000000	0.000000	0.000000
334	1030.920000	25.115000	0.000000	0.000000	0.000000
336	1030.187000	23.600000	0.000000	0.000000	0.000000
337	1031.210000	23.400000	0.000000	0.000000	0.000000
338	1031.620000	21.429000	0.000000	0.000000	0.000000
339	1031.993000	19.530000	0.000000	0.000000	0.000000
344	1031.047000	22.700000	0.000000	0.000000	0.000000
354	1034.439000	17.970000	0.000000	0.000000	0.000000
356	1033.742000	19.340000	0.000000	0.000000	0.000000
357	1033.470000	18.340000	0.000000	0.000000	0.000000
358	1033.168000	18.080000	0.000000	0.000000	0.000000
359	1032.263000	20.130000	0.000000	0.000000	0.000000
360	1031.058000	20.270000	0.000000	0.000000	0.000000
361	1027.552000	24.240000	0.000000	0.000000	0.000000
362	1027.707000	23.460000	0.000000	0.000000	0.000000
363	1028.450000	22.100000	0.000000	0.000000	0.000000
364	1028.718000	22.150000	0.000000	0.000000	0.000000
365	1028.935000	22.500000	0.000000	0.000000	0.000000
366	1029.684000	24.590000	0.000000	0.000000	0.000000
367	1030.257000	23.380000	0.000000	0.000000	0.000000
368	1030.681000	22.350000	0.000000	0.000000	0.000000
378	1016.448000	26.380000	0.000000	0.000000	0.000000
379	1016.291000	27.090000	0.000000	0.000000	0.000000
380	1016.087000	27.190000	0.000000	0.000000	0.000000
381	1015.748000	26.380000	0.000000	0.000000	0.000000
382	1015.429000	24.800000	0.000000	0.000000	0.000000
383	1015.222000	25.060000	0.000000	0.000000	0.000000
384	1014.953000	26.620000	0.000000	0.000000	0.000000
385	1014.699000	24.310000	0.000000	0.000000	0.000000
386	1013.940000	25.730000	0.000000	0.000000	0.000000
387	1013.821000	31.350000	0.000000	0.000000	0.000000
388	1013.750000	29.844000	0.000000	0.000000	0.000000
389	1013.562000	28.230000	0.000000	0.000000	0.000000
4	1024.576000	19.280000	0.000000	0.000000	0.000000
41	1004.062000	11.450000	0.000000	0.000000	0.000000
418	1031.344000	21.980000	0.000000	0.000000	0.000000
419	1031.817000	22.600000	0.000000	0.000000	0.000000
42	1006.388000	12.550000	0.000000	0.000000	0.000000
420	1032.360000	23.970000	0.000000	0.000000	0.000000
421	1032.900000	23.210000	0.000000	0.000000	0.000000
424	1063.893000	12.910000	0.000000	0.000000	0.000000
425	1064.634000	14.640000	0.000000	0.000000	0.000000
426	1065.992000	22.680000	0.000000	0.000000	0.000000
427	1065.336000	19.700000	0.000000	0.000000	0.000000
428	1066.873000	20.300000	0.000000	0.000000	0.000000
429	1031.555000	14.450000	0.000000	0.000000	0.000000
43	1008.842000	23.360000	0.000000	0.000000	0.000000
430	1026.702000	17.210000	0.000000	0.000000	0.000000
431	1026.843000	17.880000	0.000000	0.000000	0.000000
432	1027.420000	16.900000	0.000000	0.000000	0.000000
433	1027.782000	16.800000	0.000000	0.000000	0.000000
434	1028.090000	17.150000	0.000000	0.000000	0.000000
435	1028.503000	17.520000	0.000000	0.000000	0.000000
436	1028.681000	16.830000	0.000000	0.000000	0.000000
441	1029.566000	15.180000	0.000000	0.000000	0.000000
442	1030.550000	15.000000	0.000000	0.000000	0.000000
443	1031.718000	13.450000	0.000000	0.000000	0.000000
444	1032.335000	13.310000	0.000000	0.000000	0.000000
445	1032.925000	13.770000	0.000000	0.000000	0.000000
446	1024.301000	20.140000	0.000000	0.000000	0.000000
447	1024.940000	19.148000	0.000000	0.000000	0.000000
448	1025.198000	18.890000	0.000000	0.000000	0.000000
449	1025.965000	19.090000	0.000000	0.000000	0.000000
450	1026.082000	18.080000	0.000000	0.000000	0.000000
451	1026.163000	17.450000	0.000000	0.000000	0.000000
452	1033.399000	12.350000	0.000000	0.000000	0.000000
453	1033.908000	12.520000	0.000000	0.000000	0.000000
454	1034.388000	12.420000	0.000000	0.000000	0.000000
455	1019.559000	25.920000	0.000000	0.000000	0.000000
456	1019.295000	24.550000	0.000000	0.000000	0.000000
457	1018.853000	24.750000	0.000000	0.000000	0.000000
458	1018.471000	24.930000	0.000000	0.000000	0.000000
459	1018.102000	26.180000	0.000000	0.000000	0.000000
460	1017.635000	27.830000	0.000000	0.000000	0.000000
461	1017.261000	26.190000	0.000000	0.000000	0.000000
462	1016.860000	27.220000	0.000000	0.000000	0.000000
463	1016.704000	26.490000	0.000000	0.000000	0.000000
499	1063.454000	13.530000	0.000000	0.000000	0.000000
5	1024.812000	19.670000	0.000000	0.000000	0.000000
501	1034.711000	16.740000	0.000000	0.000000	0.000000
506	1033.750000	17.800000	0.000000	0.000000	0.000000
507	1033.051000	16.830000	0.000000	0.000000	0.000000
527	1028.522000	15.610000	0.000000	0.000000	0.000000
528	1027.898000	16.300000	0.000000	0.000000	0.000000
529	1027.562000	16.230000	0.000000	0.000000	0.000000
53	1026.497000	17.450000	0.000000	0.000000	0.000000
54	1025.247000	21.320000	0.000000	0.000000	0.000000
544	1023.319000	22.840000	0.000000	0.000000	0.000000
545	1022.484000	24.030000	0.000000	0.000000	0.000000
546	1021.967000	22.500000	0.000000	0.000000	0.000000
547	1020.588000	26.190000	0.000000	0.000000	0.000000
548	1024.070000	19.774000	0.000000	0.000000	0.000000
549	1023.574000	20.270000	0.000000	0.000000	0.000000
550	1022.981000	21.820000	0.000000	0.000000	0.000000
551	1021.430000	24.140000	0.000000	0.000000	0.000000
56	1030.133000	13.000000	0.000000	0.000000	0.000000
565	1014.645000	12.720000	0.000000	0.000000	0.000000
566	1029.164000	14.320000	0.000000	0.000000	0.000000
567	1020.976000	20.590000	0.000000	0.000000	0.000000
568	1022.023000	20.500000	0.000000	0.000000	0.000000
569	1023.021000	18.890000	0.000000	0.000000	0.000000
570	1023.490000	20.850000	0.000000	0.000000	0.000000
572	1015.074000	24.180000	0.000000	0.000000	0.000000
58	1010.229000	25.739000	0.000000	0.000000	0.000000
586	1025.026000	18.760000	0.000000	0.000000	0.000000
587	1025.392000	18.040000	0.000000	0.000000	0.000000
588	1025.858000	18.280000	0.000000	0.000000	0.000000
589	1026.334000	17.460000	0.000000	0.000000	0.000000
590	1026.824000	17.120000	0.000000	0.000000	0.000000
597	1023.745000	21.140000	0.000000	0.000000	0.000000
598	1024.123000	20.040000	0.000000	0.000000	0.000000
599	1024.569000	19.040000	0.000000	0.000000	0.000000
6	1025.246000	19.940000	0.000000	0.000000	0.000000
605	1022.547000	21.860000	0.000000	0.000000	0.000000
635	1029.758000	24.780000	0.000000	0.000000	0.000000
636	1027.319000	24.140000	0.000000	0.000000	0.000000
639	1030.418000	23.040000	0.000000	0.000000	0.000000
646	1027.188000	23.320000	0.000000	0.000000	0.000000
647	1030.149000	23.460000	0.000000	0.000000	0.000000
65	1024.005000	19.190000	0.000000	0.000000	0.000000
650	1032.323000	24.230000	0.000000	0.000000	0.000000
651	1031.277000	24.020000	0.000000	0.000000	0.000000
652	1031.061000	23.700000	0.000000	0.000000	0.000000
653	1030.733000	23.850000	0.000000	0.000000	0.000000
654	1030.550000	23.120000	0.000000	0.000000	0.000000
659	1028.907000	23.650000	0.000000	0.000000	0.000000
66	1023.513000	19.950000	0.000000	0.000000	0.000000
67	1038.859000	9.600000	0.000000	0.000000	0.000000
672	1029.324000	24.200000	0.000000	0.000000	0.000000
675	1032.177000	16.000000	0.000000	0.000000	0.000000
676	1031.534000	17.520000	0.000000	0.000000	0.000000
68	1033.474000	14.770000	0.000000	0.000000	0.000000
682	1020.934000	17.046000	0.000000	0.000000	0.000000
683	1021.767000	16.574000	0.000000	0.000000	0.000000
684	1022.842000	17.180000	0.000000	0.000000	0.000000
685	1022.121000	16.220000	0.000000	0.000000	0.000000
69	1025.689000	13.330000	0.000000	0.000000	0.000000
7	1025.732000	18.930000	0.000000	0.000000	0.000000
70	1026.298000	14.680000	0.000000	0.000000	0.000000
708	1010.108000	27.344000	0.000000	0.000000	0.000000
709	1009.780000	25.795000	0.000000	0.000000	0.000000
71	1027.821000	16.240000	0.000000	0.000000	0.000000
710	1009.514000	27.078000	0.000000	0.000000	0.000000
711	1008.913000	26.250000	0.000000	0.000000	0.000000
712	1008.048000	29.320000	0.000000	0.000000	0.000000
713	1007.535000	28.100000	0.000000	0.000000	0.000000
714	1008.517000	26.570000	0.000000	0.000000	0.000000
715	1008.580000	25.400000	0.000000	0.000000	0.000000
716	1007.653000	24.720000	0.000000	0.000000	0.000000
717	1010.988000	29.111000	0.000000	0.000000	0.000000
718	1010.407000	27.490000	0.000000	0.000000	0.000000
719	1010.467000	27.961000	0.000000	0.000000	0.000000
72	1027.490000	16.200000	0.000000	0.000000	0.000000
720	1010.536000	27.622000	0.000000	0.000000	0.000000
721	1010.577000	27.299000	0.000000	0.000000	0.000000
722	1010.731000	28.168000	0.000000	0.000000	0.000000
723	1010.792000	26.918000	0.000000	0.000000	0.000000
724	1010.842000	26.868000	0.000000	0.000000	0.000000
725	1011.649000	28.860000	0.000000	0.000000	0.000000
727	1012.020000	29.370000	0.000000	0.000000	0.000000
728	1012.344000	27.950000	0.000000	0.000000	0.000000
73	1026.805000	16.160000	0.000000	0.000000	0.000000
730	1013.043000	27.670000	0.000000	0.000000	0.000000
731	1013.367000	28.220000	0.000000	0.000000	0.000000
732	1020.647000	17.333000	0.000000	0.000000	0.000000
733	1023.819000	15.220000	0.000000	0.000000	0.000000
734	1024.549000	14.570000	0.000000	0.000000	0.000000
74	1027.338000	16.530000	0.000000	0.000000	0.000000
745	1021.295000	18.150000	0.000000	0.000000	0.000000
746	1020.825000	18.710000	0.000000	0.000000	0.000000
747	1024.606000	13.500000	0.000000	0.000000	0.000000
750	1025.480000	14.850000	0.000000	0.000000	0.000000
751	1024.949000	14.010000	0.000000	0.000000	0.000000
754	1024.332000	14.410000	0.000000	0.000000	0.000000
755	1024.093000	15.050000	0.000000	0.000000	0.000000
758	1023.119000	19.820000	0.000000	0.000000	0.000000
759	1022.201000	17.700000	0.000000	0.000000	0.000000
760	1021.918000	17.670000	0.000000	0.000000	0.000000
784	1014.500000	23.800000	0.000000	0.000000	0.000000
785	1022.835000	12.090000	0.000000	0.000000	0.000000
798	1020.399000	20.580000	0.000000	0.000000	0.000000
799	1019.958000	17.540000	0.000000	0.000000	0.000000
8	1026.254000	18.620000	0.000000	0.000000	0.000000
800	1019.146000	18.180000	0.000000	0.000000	0.000000
801	1018.408000	22.200000	0.000000	0.000000	0.000000
803	1017.272000	20.550000	0.000000	0.000000	0.000000
805	1016.585000	19.940000	0.000000	0.000000	0.000000
806	1016.244000	20.530000	0.000000	0.000000	0.000000
807	1015.568000	21.500000	0.000000	0.000000	0.000000
808	1015.484000	22.760000	0.000000	0.000000	0.000000
809	1014.945000	16.580000	0.000000	0.000000	0.000000
811	1020.213000	14.840000	0.000000	0.000000	0.000000
820	1022.374000	12.680000	0.000000	0.000000	0.000000
841	1018.576000	17.820000	0.000000	0.000000	0.000000
842	1037.873000	22.840000	0.000000	0.000000	0.000000
843	1028.071000	11.260000	0.000000	0.000000	0.000000
844	1036.324000	15.720000	0.000000	0.000000	0.000000
847	1035.445000	14.760000	0.000000	0.000000	0.000000
848	1035.618000	15.130000	0.000000	0.000000	0.000000
849	1036.034000	15.440000	0.000000	0.000000	0.000000
850	1037.076000	15.650000	0.000000	0.000000	0.000000
851	1034.222000	11.370000	0.000000	0.000000	0.000000
852	1034.828000	14.360000	0.000000	0.000000	0.000000
863	1017.304000	22.631000	0.000000	0.000000	0.000000
869	1031.053000	9.030000	0.000000	0.000000	0.000000
870	1029.885000	10.050000	0.000000	0.000000	0.000000
891	1023.422000	13.260000	0.000000	0.000000	0.000000
892	1020.346000	14.440000	0.000000	0.000000	0.000000
893	1021.587000	13.800000	0.000000	0.000000	0.000000
894	1022.494000	13.040000	0.000000	0.000000	0.000000
895	1019.381000	16.430000	0.000000	0.000000	0.000000
896	1021.103000	16.460000	0.000000	0.000000	0.000000
897	1022.118000	24.270000	0.000000	0.000000	0.000000
898	1028.871000	20.630000	0.000000	0.000000	0.000000