[TITLE]
Scenario Run :  BASE

[OPTIONS]
;Option and Files Scenario Set: 5-25-15STORM
FLOW_UNITS	CFS
INFILTRATION	GREEN_AMPT
FLOW_ROUTING	DYNWAVE
ALLOW_PONDING	YES
DRY_DAYS	0.000000
SKIP_STEADY_STATE 	NO
IGNORE_RAINFALL	NO
IGNORE_SNOWMELT	NO
IGNORE_GROUNDWATER	NO
IGNORE_QUALITY	NO
FORCE_MAIN_EQUATION	H-W
LINK_OFFSETS	DEPTH
MIN_SLOPE	0.000000
SYS_FLOW_TOL	5
LAT_FLOW_TOL	5
START_DATE	05/25/2015
START_TIME	00:00
END_DATE	05/27/2015
END_TIME	00:00
REPORT_START_DATE	05/25/2015
REPORT_START_TIME	00:00
SWEEP_START	01/01
SWEEP_END	01/01
WET_STEP	00:05:00
DRY_STEP	00:05:00
ROUTING_STEP	10
REPORT_STEP	00:05:00
INERTIAL_DAMPING	NONE
VARIABLE_STEP	0.950000
MINIMUM_STEP	0.000000
LENGTHENING_STEP	0
MIN_SURFAREA	0.000000
NORMAL_FLOW_LIMITED	BOTH
MAX_TRIALS	10
HEAD_TOLERANCE	0.002000

[FILES]

[RAINGAGES]
; 347
CITY_HALL#	CUMULATIVE	0.250000	1.000000	TIMESERIES	10YRCITYSTORM		
CSO_12#	CUMULATIVE	0.250000	1.000000	TIMESERIES	10YRCITYSTORM		
; 352
FIRE_STATION#8#	CUMULATIVE	0.250000	1.000000	TIMESERIES	10YRCITYSTORM		
; 350
JOE_ALBI_STADIUM#	CUMULATIVE	0.250000	1.000000	TIMESERIES	10YRCITYSTORM		
; 345
SHADLE_PARK#	CUMULATIVE	0.250000	1.000000	TIMESERIES	10YRCITYSTORM		
; 351
WEST_DRIVE_RES.#	CUMULATIVE	0.250000	1.000000	TIMESERIES	10YRCITYSTORM		

[HYDROGRAPHS]

[EVAPORATION]
CONSTANT	0.000000
DRY_ONLY	NO

[TEMPERATURE]

[ADJUSTMENTS]

[SUBCATCHMENTS]
2002215#1	JOE_ALBI_STADIUM#	2002215	8.377000	23.698000	325.000000	0.003000	0.000000
2002615#1	JOE_ALBI_STADIUM#	2002615	11.749000	25.197000	300.000000	0.004000	0.000000
2002912#1	JOE_ALBI_STADIUM#	2002912	2.625000	47.771000	125.000000	0.005000	0.000000
2020212#1	JOE_ALBI_STADIUM#	2000215	18.342000	25.225000	550.000000	0.080000	0.000000
2020715#1	JOE_ALBI_STADIUM#	2020715	9.018000	29.656000	300.000000	0.007000	0.000000
2020815#1	JOE_ALBI_STADIUM#	2020815	10.809000	24.504000	325.000000	0.005000	0.000000
2021015#1	JOE_ALBI_STADIUM#	2021015	6.983000	32.170000	325.000000	0.005000	0.000000
2021312#1	JOE_ALBI_STADIUM#	2001515	13.165000	25.883000	300.000000	0.009000	0.000000
2400721#1	CSO_12#	2400721	11.374000	18.408000	400.000000	0.065000	0.000000
2400815#1	CSO_12#	2400815	22.797000	27.810000	375.000000	0.012000	0.000000
2401621#1	CSO_12#	2401621	18.214000	24.802000	375.000000	0.040000	0.000000
2401821#1	CSO_12#	2401821	37.548000	27.340000	375.000000	0.017000	0.000000
2422608#1	CSO_12#	2422608	2.786000	30.329000	350.000000	0.010000	0.000000
2422808#1	CSO_12#	2422808	16.784000	27.509000	350.000000	0.029000	0.000000
2452108#1	CSO_12#	2452108	5.492000	28.866000	275.000000	0.060000	0.000000
2901230#1	SHADLE_PARK#	2901230	4.407000	19.230000	300.000000	0.010000	0.000000
2901827#1	SHADLE_PARK#	2901827	6.498000	26.835000	425.000000	0.018000	0.000000
2902130#1	SHADLE_PARK#	2902130	4.838000	29.784000	350.000000	0.029000	0.000000
2902424#1	SHADLE_PARK#	2902424	13.712000	25.060000	350.000000	0.036000	0.000000
2902618#1	SHADLE_PARK#	2902618	3.839000	30.289000	275.000000	0.037000	0.000000
2902718#1	SHADLE_PARK#	2902718	11.614000	30.272000	350.000000	0.035000	0.000000
2903115#1	SHADLE_PARK#	2903115	7.036000	26.161000	375.000000	0.024000	0.000000
2903212#1	SHADLE_PARK#	2903212	18.235000	25.270000	350.000000	0.011000	0.000000
2903512#1	SHADLE_PARK#	2903512	10.308000	24.770000	325.000000	0.014000	0.000000
2903936#1	SHADLE_PARK#	2903936	25.448000	29.289000	400.000000	0.030000	0.000000
2904624#1	SHADLE_PARK#	2904624	21.177000	10.150000	750.000000	0.026000	0.000000
2905327#1	SHADLE_PARK#	2905327	10.394000	26.982000	450.000000	0.017000	0.000000
2905827#1	SHADLE_PARK#	2905827	8.643000	15.168000	350.000000	0.009000	0.000000
2906027#1	SHADLE_PARK#	2906027	12.960000	29.768000	350.000000	0.015000	0.000000
2906227#1	SHADLE_PARK#	2906227	11.943000	26.459000	350.000000	0.012000	0.000000
2906618#1	SHADLE_PARK#	2906618	9.057000	26.810000	350.000000	0.013000	0.000000
2906812#1	SHADLE_PARK#	2906812	2.140000	29.972000	150.000000	0.018000	0.000000
2907015#1	SHADLE_PARK#	2907015	7.456000	26.366000	250.000000	0.003000	0.000000
2921410#1	SHADLE_PARK#	2921410	6.768000	21.001000	300.000000	0.039000	0.000000
2921610#1	SHADLE_PARK#	2921610	5.210000	26.253000	275.000000	0.028000	0.000000
2921910#1	SHADLE_PARK#	2921910	2.446000	34.523000	325.000000	0.032000	0.000000
2922010#1	SHADLE_PARK#	2922010	4.415000	25.484000	325.000000	0.041000	0.000000
2922310#1	SHADLE_PARK#	2922310	7.825000	21.992000	350.000000	0.011000	0.000000
2922512#1	SHADLE_PARK#	2922512	4.311000	26.145000	275.000000	0.023000	0.000000
2922710#1	SHADLE_PARK#	2922710	6.524000	4.957000	350.000000	0.008000	0.000000
2923310#1	SHADLE_PARK#	2923310	4.899000	31.721000	325.000000	0.018000	0.000000
2923612#1	SHADLE_PARK#	2923612	2.706000	23.409000	350.000000	0.026000	0.000000
2923712#1	SHADLE_PARK#	2923712	1.002000	36.561000	100.000000	0.019000	0.000000
2923912#1	SHADLE_PARK#	2923912	26.018000	2.561000	1000.000000	0.013000	0.000000
2924710#1	SHADLE_PARK#	2924710	1.257000	41.868000	200.000000	0.028000	0.000000
2924812#1	SHADLE_PARK#	2924812	4.586000	34.626000	350.000000	0.022000	0.000000
2925010#1	SHADLE_PARK#	2925010	11.105000	34.728000	325.000000	0.015000	0.000000
2927212#1	SHADLE_PARK#	2904136	15.817000	26.925000	400.000000	0.029000	0.000000
2928915#1	SHADLE_PARK#	2928915	4.574000	27.962000	425.000000	0.030000	0.000000
2929115#1	SHADLE_PARK#	2929115	31.355000	8.991000	1000.000000	0.024000	0.000000
2929810#1	SHADLE_PARK#	2929810	11.730000	12.920000	750.000000	0.028000	0.000000
2930918#1	SHADLE_PARK#	2930918	8.313000	27.918000	375.000000	0.010000	0.000000
2931518#1	SHADLE_PARK#	2931518	14.774000	25.955000	450.000000	0.008000	0.000000
2931718#1	SHADLE_PARK#	2931718	6.437000	25.698000	375.000000	0.010000	0.000000
2931818#1	SHADLE_PARK#	2931818	9.687000	29.208000	350.000000	0.009000	0.000000
2932118#1	SHADLE_PARK#	2932118	17.762000	26.424000	475.000000	0.009000	0.000000
2932318#1	SHADLE_PARK#	2932318	12.289000	28.514000	375.000000	0.014000	0.000000
2932518#1	SHADLE_PARK#	2932518	8.568000	26.596000	350.000000	0.006000	0.000000
2932618#1	SHADLE_PARK#	2932618	17.531000	26.271000	450.000000	0.012000	0.000000
2932812#1	SHADLE_PARK#	2932812	5.605000	31.974000	250.000000	0.095000	0.000000
2933812#1	SHADLE_PARK#	2933812	6.204000	23.415000	300.000000	0.003000	0.000000
2934015#1	SHADLE_PARK#	2934015	11.698000	23.855000	250.000000	0.008000	0.000000
2934612#1	SHADLE_PARK#	2934612	7.352000	25.673000	300.000000	0.010000	0.000000
2934815#1	SHADLE_PARK#	2934815	10.303000	27.325000	200.000000	0.007000	0.000000
2935615#1	SHADLE_PARK#	2935615	7.014000	24.238000	200.000000	0.005000	0.000000
2936212#1	SHADLE_PARK#	2936212	18.573000	27.291000	300.000000	0.004000	0.000000
2937312#1	SHADLE_PARK#	2937312	6.147000	26.344000	250.000000	0.007000	0.000000
2937512#1	SHADLE_PARK#	2937512	8.241000	27.358000	225.000000	0.029000	0.000000
2938012#1	SHADLE_PARK#	2938012	5.482000	27.213000	250.000000	0.010000	0.000000
2938512#1	SHADLE_PARK#	2938512	5.748000	25.622000	250.000000	0.003000	0.000000
3000218#1	CSO_12#	3000218	14.618000	24.126000	350.000000	0.027000	0.000000
3000715#1	CSO_12#	3000715	21.308000	24.134000	400.000000	0.006000	0.000000
3021112#1	CSO_12#	3021112	14.893000	26.049000	325.000000	0.007000	0.000000
3502130#1	CSO_12#	3502130	17.303000	23.433000	450.000000	0.006000	0.000000
3502630#1	CSO_12#	3502630	23.910000	18.323000	375.000000	0.011000	0.000000
3502930#1	CSO_12#	3502930	63.259000	19.525000	475.000000	0.015000	0.000000
3504415#1	CSO_12#	3504415	33.648000	34.282000	350.000000	0.022000	0.000000
3505024#1	CSO_12#	3505024	49.902000	24.925000	350.000000	0.008000	0.000000
3510342#1	CSO_12#	3510342	32.462000	25.842000	350.000000	0.021000	0.000000
3522812#1	CSO_12#	3522812	16.730000	35.301000	400.000000	0.009000	0.000000
3523515#1	CSO_12#	3523515	18.267000	24.925000	500.000000	0.018000	0.000000
3523615#1	CSO_12#	3523615	41.748000	29.347000	350.000000	0.012000	0.000000
3524110#1	CSO_12#	3524110	17.193000	30.346000	350.000000	0.004000	0.000000
3524212#1	CSO_12#	3524212	15.042000	28.428000	325.000000	0.004000	0.000000
3527018#1	CSO_12#	3527018	28.401000	22.141000	450.000000	0.002000	0.000000
3603315#1	CITY_HALL#	36033	0.000000	0.000000	0.000000	0.000000	0.000000
3625910#1	CITY_HALL#	3625910	1.601000	4.200000	200.000000	0.020000	0.000000
4202430#1	CITY_HALL#	0402542	9.994000	23.671000	350.000000	0.011000	0.000000
4202630#1	CITY_HALL#	4202630	7.135000	17.453000	400.000000	0.200000	0.000000
4203430_1#1	CITY_HALL#	4203430	2.570000	2.570000	400.000000	0.017000	0.000000
4203430_2#1	CITY_HALL#	4203430	2.405000	3.640000	400.000000	0.040000	0.000000
4204224#1	CSO_12#	4204224	15.191000	32.557000	350.000000	0.007000	0.000000
4204718#1	CSO_12#	4204718	0.872000	10.744000	150.000000	0.011000	0.000000
4223708#1	CITY_HALL#	4223508	3.891000	35.262000	450.000000	0.004000	0.000000
4232212#1	CSO_12#	4232212	1.741000	33.610000	240.000000	0.007000	0.000000
4258508#1	FIRE_STATION#8#	4231415	9.798000	11.639000	520.000000	0.005000	0.000000
4301112#1	CITY_HALL#	4301112	15.166000	24.240000	450.000000	0.160000	0.000000
4301508#1	CITY_HALL#	4301508	3.179000	31.102000	350.000000	0.190000	0.000000
4305318#1	WEST_DRIVE_RES.#	4305318	11.360000	36.209000	425.000000	0.040000	0.000000
4306116#1	WEST_DRIVE_RES.#	4306116	3.457000	12.950000	300.000000	0.150000	0.000000
4306316#1	WEST_DRIVE_RES.#	4306216	0.891000	45.697000	130.000000	0.018000	0.000000
4323508#1	WEST_DRIVE_RES.#	4315008	9.621000	25.553000	600.000000	0.085000	0.000000
4326915#1	WEST_DRIVE_RES.#	4306316	27.999000	26.060000	400.000000	0.047000	0.000000
4401021#1	WEST_DRIVE_RES.#	4401021	14.659000	13.319000	350.000000	0.093000	0.000000
4401821#1	WEST_DRIVE_RES.#	44018	14.905000	9.379000	400.000000	0.098000	0.000000
4402415#1	WEST_DRIVE_RES.#	4402415	5.761000	38.038000	300.000000	0.037000	0.000000
4405836#1	WEST_DRIVE_RES.#	4405836	21.360000	15.961000	350.000000	0.056000	0.000000
4405927#1	WEST_DRIVE_RES.#	4405927	8.582000	14.459000	350.000000	0.060000	0.000000
4424908#1	WEST_DRIVE_RES.#	4404410	1.700000	31.865000	100.000000	0.037000	0.000000
4427812#1	WEST_DRIVE_RES.#	4427812	20.067000	20.260000	350.000000	0.026000	0.000000
4427912#1	WEST_DRIVE_RES.#	4427912	44.707000	18.381000	675.000000	0.012000	0.000000
4452612#1	WEST_DRIVE_RES.#	4452612	22.084000	14.511000	350.000000	0.020000	0.000000
4502510#1	WEST_DRIVE_RES.#	4502510	10.613000	19.761000	230.000000	0.038000	0.000000
4502910#1	WEST_DRIVE_RES.#	4502910	2.294000	19.079000	150.000000	0.075000	0.000000
4503010#1	WEST_DRIVE_RES.#	4503010	1.334000	0.000000	100.000000	0.074000	0.000000
4621608#1	WEST_DRIVE_RES.#	4601712	16.818000	12.526000	250.000000	0.023000	0.000000
5601724#1	FIRE_STATION#8#	5601724	104.371000	20.569000	400.000000	0.013000	0.000000
5701818#1	FIRE_STATION#8#	5701818	50.104000	26.958000	375.000000	0.003000	0.000000
5703115#1	FIRE_STATION#8#	5703115	53.181000	25.394000	375.000000	0.003000	0.000000
5720110#1	FIRE_STATION#8#	5720110	70.709000	24.132000	375.000000	0.009000	0.000000
5728708#1	FIRE_STATION#8#	0506224	0.717000	40.631000	100.000000	0.001000	0.000000
6201612#1	FIRE_STATION#8#	6201612	1.532000	20.071000	200.000000	0.001000	0.000000
6221208#1	FIRE_STATION#8#	6221208	3.059000	31.423000	120.000000	0.001000	0.000000
6221308#1	FIRE_STATION#8#	6221308	3.829000	23.885000	260.000000	0.003000	0.000000

[SUBAREAS]
2002215#1	0.015000	0.300000	0.040000	0.100000	0.000000	OUTLET
2002615#1	0.015000	0.300000	0.040000	0.100000	0.000000	OUTLET
2002912#1	0.015000	0.300000	0.040000	0.100000	0.000000	OUTLET
2020212#1	0.020000	0.300000	0.050000	0.100000	0.000000	OUTLET
2020715#1	0.015000	0.300000	0.040000	0.100000	0.000000	OUTLET
2020815#1	0.015000	0.300000	0.040000	0.100000	0.000000	OUTLET
2021015#1	0.015000	0.300000	0.040000	0.100000	0.000000	OUTLET
2021312#1	0.015000	0.300000	0.040000	0.100000	0.000000	OUTLET
2400721#1	0.010000	0.060000	0.009000	0.100000	0.000000	OUTLET
2400815#1	0.010000	0.060000	0.009000	0.100000	0.000000	OUTLET
2401621#1	0.010000	0.060000	0.009000	0.100000	0.000000	OUTLET
2401821#1	0.010000	0.060000	0.009000	0.100000	0.000000	OUTLET
2422608#1	0.010000	0.060000	0.009000	0.100000	0.000000	OUTLET
2422808#1	0.010000	0.060000	0.009000	0.100000	0.000000	OUTLET
2452108#1	0.010000	0.060000	0.009000	0.100000	0.000000	OUTLET
2901230#1	0.010000	0.060000	0.009000	0.100000	0.000000	OUTLET
2901827#1	0.010000	0.030000	0.015000	0.100000	0.000000	OUTLET
2902130#1	0.010000	0.030000	0.015000	0.100000	0.000000	OUTLET
2902424#1	0.010000	0.030000	0.015000	0.100000	0.000000	OUTLET
2902618#1	0.010000	0.030000	0.015000	0.100000	0.000000	OUTLET
2902718#1	0.010000	0.030000	0.015000	0.100000	0.000000	OUTLET
2903115#1	0.010000	0.030000	0.015000	0.100000	0.000000	OUTLET
2903212#1	0.010000	0.030000	0.015000	0.100000	0.000000	OUTLET
2903512#1	0.010000	0.030000	0.015000	0.100000	0.000000	OUTLET
2903936#1	0.010000	0.030000	0.015000	0.100000	0.000000	OUTLET
2904624#1	0.010000	0.030000	0.015000	0.100000	0.000000	OUTLET
2905327#1	0.010000	0.030000	0.015000	0.100000	0.000000	OUTLET
2905827#1	0.010000	0.030000	0.015000	0.100000	0.000000	OUTLET
2906027#1	0.010000	0.030000	0.015000	0.100000	0.000000	OUTLET
2906227#1	0.010000	0.030000	0.015000	0.100000	0.000000	OUTLET
2906618#1	0.010000	0.030000	0.015000	0.100000	0.000000	OUTLET
2906812#1	0.010000	0.030000	0.015000	0.100000	0.000000	OUTLET
2907015#1	0.010000	0.030000	0.015000	0.100000	0.000000	OUTLET
2921410#1	0.010000	0.030000	0.015000	0.100000	0.000000	OUTLET
2921610#1	0.010000	0.030000	0.015000	0.100000	0.000000	OUTLET
2921910#1	0.010000	0.030000	0.015000	0.100000	0.000000	OUTLET
2922010#1	0.010000	0.030000	0.015000	0.100000	0.000000	OUTLET
2922310#1	0.010000	0.030000	0.015000	0.100000	0.000000	OUTLET
2922512#1	0.010000	0.030000	0.015000	0.100000	0.000000	OUTLET
2922710#1	0.010000	0.030000	0.015000	0.100000	0.000000	OUTLET
2923310#1	0.010000	0.030000	0.015000	0.100000	0.000000	OUTLET
2923612#1	0.010000	0.030000	0.015000	0.100000	0.000000	OUTLET
2923712#1	0.010000	0.030000	0.015000	0.100000	0.000000	OUTLET
2923912#1	0.010000	0.030000	0.015000	0.100000	0.000000	OUTLET
2924710#1	0.010000	0.030000	0.015000	0.100000	0.000000	OUTLET
2924812#1	0.010000	0.030000	0.015000	0.100000	0.000000	OUTLET
2925010#1	0.010000	0.030000	0.015000	0.100000	0.000000	OUTLET
2927212#1	0.010000	0.030000	0.015000	0.100000	0.000000	OUTLET
2928915#1	0.010000	0.030000	0.015000	0.100000	0.000000	OUTLET
2929115#1	0.010000	0.030000	0.015000	0.100000	0.000000	OUTLET
2929810#1	0.010000	0.030000	0.015000	0.100000	0.000000	OUTLET
2930918#1	0.010000	0.030000	0.015000	0.100000	0.000000	OUTLET
2931518#1	0.010000	0.030000	0.015000	0.100000	0.000000	OUTLET
2931518C#1	0.010000	0.030000	0.015000	0.100000	0.000000	OUTLET
2931718#1	0.010000	0.030000	0.015000	0.100000	0.000000	OUTLET
2931818#1	0.010000	0.030000	0.015000	0.100000	0.000000	OUTLET
2932118#1	0.010000	0.030000	0.015000	0.100000	0.000000	OUTLET
2932318#1	0.010000	0.030000	0.015000	0.100000	0.000000	OUTLET
2932518#1	0.010000	0.030000	0.015000	0.100000	0.000000	OUTLET
2932618#1	0.010000	0.030000	0.015000	0.100000	0.000000	OUTLET
2932812#1	0.010000	0.030000	0.015000	0.100000	0.000000	OUTLET
2933812#1	0.010000	0.030000	0.015000	0.100000	0.000000	OUTLET
2934015#1	0.010000	0.030000	0.015000	0.100000	0.000000	OUTLET
2934612#1	0.010000	0.030000	0.015000	0.100000	0.000000	OUTLET
2934815#1	0.010000	0.030000	0.015000	0.100000	0.000000	OUTLET
2935615#1	0.010000	0.030000	0.015000	0.100000	0.000000	OUTLET
2936212#1	0.010000	0.030000	0.015000	0.100000	0.000000	OUTLET
2937312#1	0.010000	0.030000	0.015000	0.100000	0.000000	OUTLET
2937512#1	0.010000	0.030000	0.015000	0.100000	0.000000	OUTLET
2938012#1	0.010000	0.030000	0.015000	0.100000	0.000000	OUTLET
2938512#1	0.010000	0.030000	0.015000	0.100000	0.000000	OUTLET
3000218#1	0.011000	0.450000	0.010000	0.100000	0.000000	OUTLET
3000715#1	0.011000	0.450000	0.010000	0.100000	0.000000	OUTLET
3021112#1	0.011000	0.450000	0.010000	0.100000	0.000000	OUTLET
3502130#1	0.010000	0.050000	0.010000	0.100000	0.000000	OUTLET
3502630#1	0.010000	0.050000	0.010000	0.100000	0.000000	OUTLET
3502930#1	0.010000	0.050000	0.010000	0.100000	0.000000	OUTLET
3504415#1	0.010000	0.050000	0.010000	0.100000	0.000000	OUTLET
3505024#1	0.010000	0.050000	0.010000	0.100000	0.000000	OUTLET
3510342#1	0.010000	0.050000	0.010000	0.100000	0.000000	OUTLET
3522812#1	0.010000	0.050000	0.010000	0.100000	0.000000	OUTLET
3523515#1	0.010000	0.050000	0.010000	0.100000	0.000000	OUTLET
3523615#1	0.010000	0.050000	0.010000	0.100000	0.000000	OUTLET
3524110#1	0.010000	0.050000	0.010000	0.100000	0.000000	OUTLET
3524212#1	0.010000	0.050000	0.010000	0.100000	0.000000	OUTLET
3527018#1	0.010000	0.050000	0.010000	0.100000	0.000000	OUTLET
3603315#1	0.018000	0.060000	0.030000	0.100000	0.000000	OUTLET
3625910#1	0.018000	0.060000	0.030000	0.100000	0.000000	OUTLET
4202430#1	0.018000	0.060000	0.030000	0.100000	0.000000	OUTLET
4202630#1	0.018000	0.060000	0.030000	0.100000	0.000000	OUTLET
4203430_1#1	0.018000	0.060000	0.030000	0.100000	0.000000	OUTLET
4203430_2#1	0.018000	0.060000	0.030000	0.100000	0.000000	OUTLET
4204224#1	0.018000	0.060000	0.030000	0.100000	0.000000	OUTLET
4204718#1	0.018000	0.060000	0.030000	0.100000	0.000000	OUTLET
4223708#1	0.018000	0.060000	0.030000	0.100000	0.000000	OUTLET
4232212#1	0.018000	0.060000	0.030000	0.100000	0.000000	OUTLET
4258508#1	0.018000	0.060000	0.030000	0.100000	0.000000	OUTLET
4301112#1	0.018000	0.060000	0.030000	0.100000	0.000000	OUTLET
4301508#1	0.018000	0.060000	0.030000	0.100000	0.000000	OUTLET
4305318#1	0.018000	0.060000	0.030000	0.100000	0.000000	OUTLET
4306116#1	0.018000	0.060000	0.030000	0.100000	0.000000	OUTLET
4306316#1	0.018000	0.040000	0.005000	0.050000	0.000000	OUTLET
4320608#1	0.100000	0.001000	0.050000	0.050000	25.000000	OUTLET
4323508#1	0.020000	0.400000	0.080000	0.150000	0.000000	OUTLET
4326915#1	0.018000	0.040000	0.005000	0.050000	0.000000	OUTLET
4401021#1	0.020000	0.400000	0.080000	0.150000	0.000000	OUTLET
44018#1	0.020000	0.400000	0.080000	0.150000	0.000000	OUTLET
4401821#1	0.020000	0.400000	0.080000	0.150000	0.000000	OUTLET
4402415#1	0.020000	0.400000	0.080000	0.150000	0.000000	OUTLET
4405836#1	0.020000	0.400000	0.080000	0.150000	0.000000	OUTLET
44059#1	0.020000	0.400000	0.080000	0.150000	0.000000	OUTLET
4405927#1	0.020000	0.400000	0.080000	0.150000	0.000000	OUTLET
4424908#1	0.020000	0.400000	0.080000	0.150000	0.000000	OUTLET
4427812#1	0.020000	0.400000	0.080000	0.150000	0.000000	OUTLET
4427912#1	0.020000	0.400000	0.080000	0.150000	0.000000	OUTLET
4452612#1	0.020000	0.400000	0.080000	0.150000	0.000000	OUTLET
4502510#1	0.020000	0.400000	0.080000	0.150000	0.000000	OUTLET
4502910#1	0.020000	0.400000	0.080000	0.150000	0.000000	OUTLET
45030#1	0.020000	0.400000	0.080000	0.150000	0.000000	OUTLET
4503010#1	0.020000	0.400000	0.080000	0.150000	0.000000	OUTLET
4621608#1	0.020000	0.400000	0.080000	0.150000	0.000000	OUTLET
5601724#1	0.020000	0.030000	0.050000	0.100000	0.000000	OUTLET
5701818#1	0.025000	0.060000	0.060000	0.100000	0.000000	OUTLET
5703115#1	0.017000	0.035000	0.010000	0.100000	0.000000	OUTLET
5720110#1	0.020000	0.030000	0.080000	0.100000	0.000000	OUTLET
5728708#1	0.020000	0.030000	0.080000	0.100000	0.000000	OUTLET
6201612#1	0.020000	0.040000	0.050000	0.100000	0.000000	OUTLET
6221208#1	0.020000	0.040000	0.050000	0.100000	0.000000	OUTLET
6221308#1	0.020000	0.040000	0.050000	0.100000	0.000000	OUTLET

[INFILTRATION]
2002215#1	8.000000	0.350000	0.100000
2002615#1	8.000000	0.350000	0.100000
2002912#1	8.000000	0.350000	0.100000
2020212#1	8.000000	0.350000	0.100000
2020715#1	8.000000	0.350000	0.100000
2020815#1	8.000000	0.350000	0.100000
2021015#1	8.000000	0.350000	0.100000
2021312#1	8.000000	0.350000	0.100000
2422608#1	12.000000	0.400000	0.100000
2901827#1	8.000000	0.300000	0.100000
2902130#1	8.000000	0.300000	0.100000
2902424#1	8.000000	0.300000	0.100000
2902618#1	8.000000	0.300000	0.100000
2902718#1	8.000000	0.300000	0.100000
2903115#1	8.000000	0.300000	0.100000
2903212#1	8.000000	0.300000	0.100000
2903512#1	8.000000	0.300000	0.100000
2903936#1	8.000000	0.300000	0.100000
2904624#1	8.000000	0.300000	0.100000
2905327#1	8.000000	0.300000	0.100000
2905827#1	8.000000	0.300000	0.100000
2906027#1	8.000000	0.300000	0.100000
2906227#1	8.000000	0.300000	0.100000
2906618#1	8.000000	0.300000	0.100000
2906812#1	8.000000	0.300000	0.100000
2907015#1	8.000000	0.300000	0.100000
2921410#1	8.000000	0.300000	0.100000
2921610#1	8.000000	0.300000	0.100000
2921910#1	8.000000	0.300000	0.100000
2922010#1	8.000000	0.300000	0.100000
2922512#1	8.000000	0.300000	0.100000
2923310#1	8.000000	0.300000	0.100000
2923612#1	8.000000	0.300000	0.100000
2923712#1	8.000000	0.300000	0.100000
2923912#1	8.000000	0.300000	0.100000
2924710#1	8.000000	0.300000	0.100000
2924812#1	8.000000	0.300000	0.100000
2925010#1	8.000000	0.300000	0.100000
2928915#1	8.000000	0.300000	0.100000
2929115#1	8.000000	0.300000	0.100000
2929810#1	8.000000	0.300000	0.100000
2930918#1	8.000000	0.300000	0.100000
2931518#1	8.000000	0.300000	0.100000
2931718#1	8.000000	0.300000	0.100000
2931818#1	8.000000	0.300000	0.100000
2932118#1	8.000000	0.300000	0.100000
2932318#1	8.000000	0.300000	0.100000
2932518#1	8.000000	0.300000	0.100000
2932618#1	8.000000	0.300000	0.100000
2932812#1	8.000000	0.300000	0.100000
2933812#1	8.000000	0.300000	0.100000
2934015#1	8.000000	0.300000	0.100000
2934612#1	8.000000	0.300000	0.100000
2934815#1	8.000000	0.300000	0.100000
2935615#1	8.000000	0.300000	0.100000
2936212#1	8.000000	0.300000	0.100000
2937312#1	8.000000	0.300000	0.100000
2937512#1	8.000000	0.300000	0.100000
2938012#1	8.000000	0.300000	0.100000
2938512#1	8.000000	0.300000	0.100000
3000218#1	8.000000	0.400000	0.100000
3000715#1	8.000000	0.400000	0.100000
3021112#1	8.000000	0.400000	0.100000
3502130#1	8.000000	0.350000	0.300000
3502630#1	8.000000	0.350000	0.300000
3502930#1	8.000000	0.350000	0.300000
3504415#1	8.000000	0.350000	0.300000
3505024#1	8.000000	0.350000	0.300000
3510342#1	8.000000	0.350000	0.300000
3522812#1	8.000000	0.350000	0.300000
3523515#1	8.000000	0.350000	0.300000
3523615#1	8.000000	0.350000	0.300000
3524110#1	8.000000	0.350000	0.300000
3524212#1	8.000000	0.350000	0.300000
3527018#1	8.000000	0.350000	0.300000
3603315#1	12.000000	0.400000	0.350000
3625910#1	12.000000	0.400000	0.350000
4202430#1	12.000000	0.400000	0.100000
4202630#1	12.000000	0.400000	0.100000
4223708#1	12.000000	0.400000	0.100000
4258508#1	12.000000	0.400000	0.100000
4306316#1	8.000000	0.300000	0.100000
4323508#1	12.000000	0.350000	0.100000
4326915#1	8.000000	0.300000	0.100000
4401021#1	12.000000	0.350000	0.100000
4401821#1	12.000000	0.350000	0.100000
4405836#1	12.000000	0.350000	0.100000
4405927#1	12.000000	0.350000	0.100000
4427812#1	12.000000	0.350000	0.100000
4502510#1	12.000000	0.350000	0.100000
4502910#1	12.000000	0.350000	0.100000
4503010#1	12.000000	0.350000	0.100000
4621608#1	12.000000	0.350000	0.100000
5601724#1	8.000000	0.350000	0.100000
5701818#1	12.000000	0.350000	0.100000
5703115#1	8.000000	0.350000	0.100000
5720110#1	12.000000	0.350000	0.100000
6201612#1	8.000000	0.350000	0.100000
6221208#1	8.000000	0.350000	0.100000
6221308#1	8.000000	0.350000	0.100000

[AQUIFERS]

[GROUNDWATER]

[GWF]

[SNOWPACKS]

[LID_CONTROLS]
AVGDW_DOWN_TOWN	IT
AVGDW_DOWN_TOWN	SURFACE	0.200000	0.000000	0.015000	0.500000	5.000000
AVGDW_DOWN_TOWN	STORAGE	124.000000	0.750000	0.350000	0.000000
AVGDW_DOWN_TOWN	DRAIN	0.000000	0.000000	0.000000	0.000000

AVGDW_IN_CSO20	IT
AVGDW_IN_CSO20	SURFACE	0.200000	0.000000	0.015000	0.500000	5.000000
AVGDW_IN_CSO20	STORAGE	124.000000	0.750000	0.350000	0.000000
AVGDW_IN_CSO20	DRAIN	0.000000	0.000000	0.000000	0.000000

AVGDW_IN_MIDEAST	IT
AVGDW_IN_MIDEAST	SURFACE	0.200000	0.000000	0.015000	0.500000	5.000000
AVGDW_IN_MIDEAST	STORAGE	124.000000	0.750000	0.650000	0.000000
AVGDW_IN_MIDEAST	DRAIN	0.000000	0.000000	0.000000	6.000000

AVGDW_IN_UPPERCSO24A	IT
AVGDW_IN_UPPERCSO24A	SURFACE	0.200000	0.000000	0.015000	0.500000	5.000000
AVGDW_IN_UPPERCSO24A	STORAGE	124.000000	0.750000	0.450000	0.000000
AVGDW_IN_UPPERCSO24A	DRAIN	0.000000	0.000000	0.000000	0.000000

AVGDW_ON_SOUTHHILL	IT
AVGDW_ON_SOUTHHILL	SURFACE	0.200000	0.000000	0.015000	0.500000	5.000000
AVGDW_ON_SOUTHHILL	STORAGE	124.000000	0.750000	0.500000	0.000000
AVGDW_ON_SOUTHHILL	DRAIN	0.000000	0.000000	0.000000	6.000000

AVGDW_ON_SOUTHHILL_EAST	IT
AVGDW_ON_SOUTHHILL_EAST	SURFACE	0.200000	0.000000	0.015000	0.500000	5.000000
AVGDW_ON_SOUTHHILL_EAST	STORAGE	124.000000	0.750000	0.700000	0.000000
AVGDW_ON_SOUTHHILL_EAST	DRAIN	0.000000	0.000000	0.000000	6.000000

AVGDW_ON_UPPERCSO24A	IT
AVGDW_ON_UPPERCSO24A	SURFACE	0.200000	0.000000	0.015000	0.500000	5.000000
AVGDW_ON_UPPERCSO24A	STORAGE	124.000000	0.750000	0.500000	0.000000
AVGDW_ON_UPPERCSO24A	DRAIN	0.000000	0.000000	0.000000	6.000000


[JUNCTIONS]
0100236	1727.080000	5.720000	0.000000	0.000000	0.000000
0100336	1727.600000	4.800000	0.000000	0.000000	0.000000
; Design
0100424	1724.380000	11.720000	0.000000	0.000000	0.000000
; Design
0100524	1747.570000	8.730000	0.000000	0.000000	0.000000
; Design
0100618	1765.100000	7.400000	0.000000	0.000000	0.000000
0100715	1857.760000	8.300000	0.000000	0.000000	0.000000
0100815	1873.450000	4.920000	0.000000	0.000000	0.000000
0100924	1877.080000	19.290000	0.000000	0.000000	0.000000
0101042	1878.840000	20.000000	0.000000	0.000000	0.000000
0101136	1879.840000	25.120000	0.000000	0.000000	0.000000
0101236	1880.450000	27.400000	0.000000	0.000000	0.000000
0101336	1880.760000	24.110000	0.000000	0.000000	0.000000
0101436	1881.060000	22.810000	0.000000	0.000000	0.000000
0101536	1881.530000	15.840000	0.000000	0.000000	0.000000
0101636	1881.810000	12.760000	0.000000	0.000000	0.000000
0101718	1886.220000	10.710000	0.000000	0.000000	0.000000
0101818	1887.450000	14.400000	0.000000	0.000000	0.000000
0101936	1888.060000	18.300000	0.000000	0.000000	0.000000
0102036	1888.720000	17.200000	0.000000	0.000000	0.000000
0102136	1889.390000	15.000000	0.000000	0.000000	0.000000
0102236	1890.060000	14.120000	0.000000	0.000000	0.000000
0102336	1890.080000	16.960000	0.000000	0.000000	0.000000
0102436	1890.890000	14.300000	0.000000	0.000000	0.000000
0102536	1891.630000	11.230000	0.000000	0.000000	0.000000
0102636	1892.000000	13.400000	0.000000	0.000000	0.000000
0108236	1724.250000	8.850000	0.000000	0.000000	0.000000
0108336	1725.480000	5.970000	0.000000	0.000000	0.000000
0109036	1726.850000	6.450000	0.000000	0.000000	0.000000
0110036	1882.170000	12.200000	0.000000	0.000000	0.000000
0110136	1882.510000	12.060000	0.000000	0.000000	0.000000
0110236	1884.180000	14.090000	0.000000	0.000000	0.000000
0110336	1885.740000	15.830000	0.000000	0.000000	0.000000
0110436	1886.060000	15.610000	0.000000	0.000000	0.000000
; Design
01247724	1723.950000	7.950000	0.000000	0.000000	0.000000
0200160	1724.170000	13.700000	0.000000	0.000000	0.000000
0200360	1732.300000	6.510000	0.000000	0.000000	0.000000
0200454	1737.880000	7.500000	0.000000	0.000000	0.000000
0200554	1743.330000	8.010000	0.000000	0.000000	0.000000
0200654	1747.460000	7.840000	0.000000	0.000000	0.000000
0200754	1747.680000	7.720000	0.000000	0.000000	0.000000
0201054	1754.370000	8.000000	0.000000	0.000000	0.000000
0201154	1760.460000	7.010000	0.000000	0.000000	0.000000
0201554	1763.940000	9.000000	0.000000	0.000000	0.000000
0201660	1768.620000	10.000000	0.000000	0.000000	0.000000
0201760	1772.820000	12.500000	0.000000	0.000000	0.000000
0201854	1780.180000	10.010000	0.000000	0.000000	0.000000
0201954	1786.800000	10.000000	0.000000	0.000000	0.000000
0202054	1792.560000	11.010000	0.000000	0.000000	0.000000
0202160	1797.050000	14.000000	0.000000	0.000000	0.000000
0202260	1800.930000	15.000000	0.000000	0.000000	0.000000
0202360	1804.450000	18.010000	0.000000	0.000000	0.000000
0202460	1807.870000	20.000000	0.000000	0.000000	0.000000
0202560	1811.540000	19.000000	0.000000	0.000000	0.000000
0202660	1813.870000	20.000000	0.000000	0.000000	0.000000
0202760	1815.900000	27.000000	0.000000	0.000000	0.000000
0202860	1818.410000	22.470000	0.000000	0.000000	0.000000
0203060	1821.580000	37.180000	0.000000	0.000000	0.000000
0203272	1823.430000	46.640000	0.000000	0.000000	0.000000
0203772	1825.250000	57.620000	0.000000	0.000000	0.000000
0203872	1826.810000	58.060000	0.000000	0.000000	0.000000
0203972	1828.540000	52.830000	0.000000	0.000000	0.000000
; Survey
02INT_J1	1724.250000	3.750000	0.000000	100.000000	0.000000
0300160	1807.170000	17.700000	0.000000	0.000000	0.000000
0366336ST	1880.000000	14.110000	0.000000	0.000000	0.000000
0366712ST	1882.820000	9.150000	0.000000	0.000000	0.000000
; Design
0367836CD	1839.850000	21.350000	0.000000	0.000000	0.000000
0400272	1833.110000	18.760000	0.000000	0.000000	0.000000
0400872	1837.380000	28.920000	0.000000	0.000000	0.000000
0400972	1838.400000	16.520000	0.000000	0.000000	0.000000
; Surveyed
0401072	1838.440000	16.480000	0.000000	0.000000	0.000000
; Surveyed
0401160	1841.270000	13.650000	0.000000	0.000000	0.000000
; Surveyed
0401227	1844.360000	12.900000	0.000000	0.000000	0.000000
0401327	1845.210000	13.560000	0.000000	0.000000	0.000000
0401436	1859.980000	9.990000	0.000000	0.000000	0.000000
0401527	1860.250000	9.720000	0.000000	0.000000	0.000000
0401627	1860.920000	15.250000	0.000000	0.000000	0.000000
0401727	1861.820000	15.050000	0.000000	0.000000	0.000000
0401842	1864.280000	14.390000	0.000000	0.000000	0.000000
0402042	1865.580000	19.490000	0.000000	0.000000	0.000000
0402142	1865.900000	16.970000	0.000000	0.000000	0.000000
0402242	1866.090000	15.880000	0.000000	0.000000	0.000000
0402342	1866.920000	15.950000	0.000000	0.000000	0.000000
0402442	1867.820000	16.950000	0.000000	0.000000	0.000000
0402542	1868.370000	16.000000	0.000000	0.000000	0.000000
0402742	1864.480000	16.390000	0.000000	0.000000	0.000000
; Surveyed
0417630	1842.320000	13.860000	0.000000	0.000000	0.000000
; Surveyed
0417930	1842.620000	14.840000	0.000000	0.000000	0.000000
; Surveyed
0418030	1843.820000	12.940000	0.000000	0.000000	0.000000
0419710CD	1841.280000	10.000000	0.000000	0.000000	0.000000
; Design
04FW_J1	1836.520000	22.480000	0.000000	0.000000	0.000000
; Design
04FW_J2	1836.520000	22.480000	0.000000	0.000000	0.000000
; Design
04FW_J3	1836.520000	22.480000	0.000000	0.000000	0.000000
; Design