[TITLE]
;;Project Title/Notes
Scenario Run :  PERIOD2
San Diego Airport Proposed Condition

[OPTIONS]
;;Option             Value
FLOW_UNITS           CFS
INFILTRATION         GREEN_AMPT
FLOW_ROUTING         DYNWAVE
LINK_OFFSETS         DEPTH
MIN_SLOPE            0
ALLOW_PONDING        YES
SKIP_STEADY_STATE    NO

START_DATE           09/03/1963
START_TIME           00:00:00
REPORT_START_DATE    09/03/1963
REPORT_START_TIME    00:00:00
END_DATE             11/05/1963
END_TIME             23:00:00
SWEEP_START          01/01
SWEEP_END            01/01
DRY_DAYS             0.000000
REPORT_STEP          01:00:00
WET_STEP             01:00:00
DRY_STEP             01:00:00
ROUTING_STEP         0:00:30 

INERTIAL_DAMPING     PARTIAL
NORMAL_FLOW_LIMITED  BOTH
FORCE_MAIN_EQUATION  H-W
VARIABLE_STEP        0.75
LENGTHENING_STEP     10
MIN_SURFAREA         12.557000
MAX_TRIALS           8
HEAD_TOLERANCE       0.001000
SYS_FLOW_TOL         5
LAT_FLOW_TOL         5
MINIMUM_STEP         0
THREADS              1

[EVAPORATION]
;;Data Source    Parameters
;;-------------- ----------------
MONTHLY          0.930000 1.400000 2.480000 3.300000 4.030000 4.500000 4.650000 4.030000 3.300000 2.480000 1.200000 0.620000
DRY_ONLY         YES

[RAINGAGES]
;;Name           Format    Interval SCF      Source    
;;-------------- --------- ------ ------ ----------
LINDBERGH        VOLUME    0.083333 1.000000 TIMESERIES RAINFALL        

[SUBCATCHMENTS]
;;Name           Rain Gage        Outlet           Area     %Imperv  Width    %Slope   CurbLen  SnowPack        
;;-------------- ---------------- ---------------- -------- -------- -------- -------- -------- ----------------
C002             LINDBERGH        J03-001          0.411000 92.400000 31.000000 0.522000 0.000000                 
C003             LINDBERGH        J03-001          0.486000 98.700000 35.000000 0.412000 0.000000                 
C004             LINDBERGH        J03-001          1.622000 96.100000 248.000000 0.175000 0.000000                 
C005             LINDBERGH        J03-001          1.456000 87.600000 88.000000 0.345000 0.000000                 
C006             LINDBERGH        J03-001          1.020000 5.900000 283.000000 1.149000 0.000000                 
C007             LINDBERGH        J03-006          2.317000 100.000000 283.000000 0.252000 0.000000                 
C008             LINDBERGH        J03-007          2.602000 72.200000 285.000000 0.905000 0.000000                 
C009             LINDBERGH        J03-008          2.208000 70.400000 274.000000 0.883000 0.000000                 
C010             LINDBERGH        J03-009          3.483000 68.800000 343.000000 0.723000 0.000000                 
C011             LINDBERGH        J03-010          7.590000 93.600000 338.000000 1.094000 0.000000                 
C012             LINDBERGH        J03-011          5.017000 81.900000 494.000000 0.791000 0.000000                 
C013             LINDBERGH        J03-012          3.445000 100.000000 421.000000 0.785000 0.000000                 
C014             LINDBERGH        J03-013          7.314000 100.000000 327.000000 0.882000 0.000000                 
C015             LINDBERGH        J03-014          4.218000 100.000000 347.000000 0.586000 0.000000                 
C016             LINDBERGH        J196             8.845000 100.000000 2446.000000 1.079000 0.000000                 
C017             LINDBERGH        J195             2.722000 100.000000 796.000000 0.604000 0.000000                 
C018             LINDBERGH        J03-017          0.134000 100.000000 48.000000 1.810000 0.000000                 
C019             LINDBERGH        J03-018          5.955000 99.200000 393.000000 0.667000 0.000000                 
C020             LINDBERGH        J247             2.311000 100.000000 260.000000 0.291000 0.000000                 
C021             LINDBERGH        J201             2.942000 96.000000 628.000000 0.245000 0.000000                 
C022             LINDBERGH        J192             3.822000 93.700000 708.000000 0.213000 0.000000                 
C023             LINDBERGH        J06-012          4.421000 100.000000 336.000000 0.174000 0.000000                 
C024             LINDBERGH        J06-012          1.387000 87.000000 215.000000 0.711000 0.000000                 
C026             LINDBERGH        J03-033          1.792000 85.100000 120.000000 0.478000 0.000000                 
C027             LINDBERGH        J03-036          0.837000 100.000000 161.000000 1.100000 0.000000                 
C028             LINDBERGH        J03-033          4.427000 82.900000 327.000000 3.733000 0.000000                 
C029             LINDBERGH        J03-034          4.913000 87.300000 403.000000 0.376000 0.000000                 
C030             LINDBERGH        J03-034          3.016000 92.800000 525.000000 2.399000 0.000000                 
C031             LINDBERGH        J03-034          2.889000 88.000000 103.000000 0.123000 0.000000                 
C032             LINDBERGH        J03-034          2.427000 87.300000 469.000000 2.220000 0.000000                 
C033             LINDBERGH        J03-034          3.931000 93.700000 141.000000 1.643000 0.000000                 
E005             LINDBERGH        J06-001          1.180000 68.900000 179.000000 243.000000 0.000000                 
F007             LINDBERGH        J06-012          11.118000 98.500000 341.000000 0.254000 0.000000                 
F008             LINDBERGH        J06-014          0.310000 14.100000 25.000000 0.261000 0.000000                 
F009             LINDBERGH        J06-014          1.368000 73.400000 113.000000 0.360000 0.000000                 
F010             LINDBERGH        J06-014          0.473000 5.500000 31.000000 0.746000 0.000000                 
F011             LINDBERGH        J06-014          4.336000 74.300000 486.000000 1.930000 0.000000                 
F012             LINDBERGH        J06-014          4.767000 92.900000 311.000000 4.275000 0.000000                 
F013             LINDBERGH        J06-014          1.464000 100.000000 179.000000 0.844000 0.000000                 
F014             LINDBERGH        J06-015          1.192000 60.400000 135.000000 0.754000 0.000000                 
F015             LINDBERGH        J06-115          1.224000 72.500000 215.000000 0.604000 0.000000                 
F016             LINDBERGH        J06-116          0.272000 36.300000 149.000000 3.663000 0.000000                 
F017             LINDBERGH        J06-117          0.307000 66.400000 96.000000 1.800000 0.000000                 
F018             LINDBERGH        J06-118          0.729000 58.500000 338.000000 1.595000 0.000000                 
F019             LINDBERGH        J06-119          0.417000 75.800000 92.000000 1.010000 0.000000                 
F020             LINDBERGH        J06-119          0.141000 1.900000 34.000000 0.055000 0.000000                 
F021             LINDBERGH        J06-121          0.198000 34.500000 77.000000 3.669000 0.000000                 
F022             LINDBERGH        J06-121          0.042000 100.000000 10.000000 2.392000 0.000000                 
F023             LINDBERGH        J06-123          0.474000 47.300000 60.000000 0.873000 0.000000                 
F024             LINDBERGH        J06-016          0.088000 100.000000 38.000000 3.480000 0.000000                 
F025             LINDBERGH        J06-015          0.662000 28.000000 172.000000 2.384000 0.000000                 
F026             LINDBERGH        J06-015          0.410000 58.100000 79.000000 3.781000 0.000000                 
F027             LINDBERGH        J06-127          0.653000 49.000000 228.000000 0.801000 0.000000                 
F028             LINDBERGH        J06-128          1.894000 69.000000 199.000000 1.135000 0.000000                 
F029             LINDBERGH        J06-127          4.191000 98.600000 813.000000 0.668000 0.000000                 
F030             LINDBERGH        J06-121          0.237000 71.200000 43.000000 0.419000 0.000000                 
F031             LINDBERGH        J06-127          14.973000 32.400000 914.000000 0.420000 0.000000                 
F032             LINDBERGH        J06-016          0.901000 52.500000 116.000000 0.442000 0.000000                 
F033             LINDBERGH        J06-017          3.593000 89.200000 287.000000 0.298000 0.000000                 
F034             LINDBERGH        J06-018          4.423000 100.000000 1094.000000 0.568000 0.000000                 
F035             LINDBERGH        J06-017          19.678000 50.000000 1408.000000 6.653000 0.000000                 
F036             LINDBERGH        J06-018          27.520000 50.000000 2126.000000 0.496000 0.000000                 
F037             LINDBERGH        J06-022          51.295000 50.000000 2426.000000 5.754000 0.000000                 
H002             LINDBERGH        J237             2.576000 70.100000 1122.000000 2.000000 0.000000                 
H003             LINDBERGH        J08-001          1.049000 89.500000 59.000000 0.260000 0.000000                 
H004             LINDBERGH        J08-001          1.284000 68.700000 174.000000 0.312000 0.000000                 
H005             LINDBERGH        J206             1.332000 100.000000 266.000000 0.596000 0.000000                 
H006             LINDBERGH        J08-020          2.107000 100.000000 664.000000 0.434000 0.000000                 
H007             LINDBERGH        J214             13.129000 100.000000 3177.000000 0.556000 0.000000                 
H008             LINDBERGH        J215             2.142000 100.000000 718.000000 5.385000 0.000000                 
H009             LINDBERGH        J210             8.902000 100.000000 1939.000000 0.500000 0.000000                 
H010             LINDBERGH        J208             5.592000 100.000000 1218.000000 0.500000 0.000000                 
H011             LINDBERGH        J204             3.681000 100.000000 740.000000 0.462000 0.000000                 
H012             LINDBERGH        J205             3.328000 100.000000 828.000000 0.571000 0.000000                 
H013             LINDBERGH        J203             3.329000 100.000000 403.000000 0.584000 0.000000                 
H031             LINDBERGH        J08-030          5.183000 100.000000 456.000000 0.807000 0.000000                 
H032             LINDBERGH        J08-032          2.007000 100.000000 300.000000 0.996000 0.000000                 
H033             LINDBERGH        J08-034          3.507000 100.000000 372.000000 1.023000 0.000000                 
H034             LINDBERGH        J08-035          2.549000 100.000000 291.000000 0.681000 0.000000                 
H035             LINDBERGH        J08-036          3.062000 100.000000 408.000000 0.887000 0.000000                 
H037             LINDBERGH        J08-038          4.348000 100.000000 423.000000 0.827000 0.000000                 
H038             LINDBERGH        J08-043          5.515000 100.000000 802.000000 0.534000 0.000000                 
H039             LINDBERGH        J08-044          2.191000 100.000000 392.000000 0.698000 0.000000                 
H040             LINDBERGH        J08-045          3.336000 100.000000 477.000000 0.656000 0.000000                 
H041             LINDBERGH        J08-046          2.635000 100.000000 476.000000 0.829000 0.000000                 
H042             LINDBERGH        J08-040          2.991000 100.000000 479.000000 0.846000 0.000000                 
H043             LINDBERGH        J08-041          2.429000 100.000000 461.000000 0.915000 0.000000                 
H044             LINDBERGH        J08-042          5.746000 100.000000 426.000000 0.664000 0.000000                 
H045             LINDBERGH        J08-051          9.610000 100.000000 2639.000000 0.757000 0.000000                 
H046             LINDBERGH        CISTERND         3.331000 100.000000 788.000000 0.815000 0.000000                 
H047             LINDBERGH        J08-060          5.508000 100.000000 1624.000000 1.083000 0.000000                 
H048             LINDBERGH        CISTERND         3.462000 99.500000 423.000000 0.841000 0.000000                 
H049             LINDBERGH        J08-064          2.100000 97.300000 316.000000 0.862000 0.000000                 
H050             LINDBERGH        J08-078          0.403000 95.100000 213.000000 0.243000 0.000000                 
H051             LINDBERGH        J08-078          1.276000 93.200000 176.000000 0.475000 0.000000                 
H052             LINDBERGH        J08-065          1.546000 94.400000 900.000000 1.336000 0.000000                 
H053             LINDBERGH        CISTERND         9.611000 100.000000 718.000000 0.738000 0.000000                 
H054             LINDBERGH        J08-071          1.972000 100.000000 314.000000 0.877000 0.000000                 
H055             LINDBERGH        J08-072          1.185000 100.000000 386.000000 1.048000 0.000000                 
H056             LINDBERGH        J08-073          2.647000 99.500000 543.000000 0.471000 0.000000                 
H057             LINDBERGH        J08-074          1.917000 100.000000 555.000000 1.196000 0.000000                 
H058             LINDBERGH        J08-076          3.148000 100.000000 128.000000 0.196000 0.000000                 
H059             LINDBERGH        J08-076          2.847000 100.000000 2011.000000 0.324000 0.000000                 
H060             LINDBERGH        J08-077          1.744000 100.000000 213.000000 0.420000 0.000000                 
H061             LINDBERGH        J08-075          4.472000 99.100000 396.000000 0.203000 0.000000                 
K014             LINDBERGH        J16-022          4.811000 100.000000 1905.000000 1.818000 0.000000                 
K042             LINDBERGH        J16-024          8.993000 100.000000 1065.000000 0.870000 0.000000                 
K043             LINDBERGH        J16-021          4.286000 100.000000 270.000000 0.608000 0.000000                 
K053             LINDBERGH        JNS-066          3.222000 92.900000 484.000000 1.448000 0.000000                 
N001             LINDBERGH        J12-001          0.750000 84.900000 57.000000 0.175000 0.000000                 
N002             LINDBERGH        J12-002          0.547000 68.300000 65.000000 0.136000 0.000000                 
N003             LINDBERGH        J12-007          1.571000 96.600000 68.000000 2.425000 0.000000                 
N004             LINDBERGH        J12-009          0.521000 100.000000 81.000000 5.708000 0.000000                 
N005             LINDBERGH        J12-101          11.474000 89.700000 2609.000000 0.261000 0.000000                 
N006             LINDBERGH        J12-022          0.317000 100.000000 197.000000 3.571000 0.000000                 
N007             LINDBERGH        J12-020          0.115000 100.000000 126.000000 6.250000 0.000000                 
N008             LINDBERGH        J12-024          0.182000 59.700000 69.000000 1.221000 0.000000                 
P001             LINDBERGH        J13-001          2.610000 52.900000 404.000000 1.420000 0.000000                 
P002             LINDBERGH        J13-004          3.327000 70.100000 373.000000 0.257000 0.000000                 
P003             LINDBERGH        J13-024          0.160000 63.200000 34.000000 2.217000 0.000000                 
P004             LINDBERGH        J13-029          0.455000 100.000000 86.000000 2.391000 0.000000                 
P005             LINDBERGH        J13-028          0.504000 93.300000 92.000000 5.850000 0.000000                 
S001             LINDBERGH        J16-025          10.611000 73.800000 1191.000000 1.469000 0.000000                 
S002             LINDBERGH        J16-003          4.174000 100.000000 356.000000 0.528000 0.000000                 
S003             LINDBERGH        J16-004          5.312000 100.000000 478.000000 0.641000 0.000000                 
S004             LINDBERGH        J16-008          2.912000 100.000000 1268.000000 4.500000 0.000000                 
S005             LINDBERGH        J16-011          1.140000 100.000000 523.000000 0.526000 0.000000                 
S006             LINDBERGH        J16-019          5.881000 100.000000 306.000000 0.550000 0.000000                 
S007             LINDBERGH        J16-011          2.805000 100.000000 191.000000 0.733000 0.000000                 
S008             LINDBERGH        J16-013          3.564000 100.000000 317.000000 0.551000 0.000000                 
S009             LINDBERGH        J16-014          0.761000 100.000000 119.000000 0.501000 0.000000                 
S011             LINDBERGH        J16-020          2.189000 100.000000 281.000000 0.765000 0.000000                 
S012             LINDBERGH        J16-017          2.973000 100.000000 1177.000000 0.636000 0.000000                 
S013             LINDBERGH        J16-018          3.775000 100.000000 1495.000000 0.455000 0.000000                 
T001             LINDBERGH        J17-002          2.756000 60.700000 420.000000 0.420000 0.000000                 
T002             LINDBERGH        J17-004          1.293000 73.600000 109.000000 0.772000 0.000000                 
T003             LINDBERGH        J17-004          2.594000 89.700000 221.000000 0.901000 0.000000                 
T004             LINDBERGH        J17-017          297.107000 50.000000 17142.000000 0.500000 0.000000                 
U001             LINDBERGH        JSP2-007         0.089000 100.000000 32.000000 0.836000 0.000000                 
U002             LINDBERGH        JSP2-005         0.261000 77.600000 74.000000 0.665000 0.000000                 
U003             LINDBERGH        JSP2-002         1.891000 94.400000 220.000000 0.936000 0.000000                 
U004             LINDBERGH        JSP2-011         0.664000 85.600000 128.000000 0.229000 0.000000                 
U005             LINDBERGH        JSP2-016         0.443000 78.900000 65.000000 0.807000 0.000000                 
U006             LINDBERGH        JSP2-018         0.390000 87.400000 59.000000 0.173000 0.000000                 
U007             LINDBERGH        JSP2-032         1.351000 97.900000 191.000000 0.813000 0.000000                 
U008             LINDBERGH        JSP2-020         0.119000 91.000000 50.000000 1.450000 0.000000                 
U009             LINDBERGH        JSP2-022         0.189000 97.600000 66.000000 1.201000 0.000000                 
U010             LINDBERGH        JSP2-024         1.050000 92.800000 148.000000 0.969000 0.000000                 
U011             LINDBERGH        JSP2-026         1.468000 95.800000 193.000000 0.875000 0.000000                 
U012             LINDBERGH        JSP2-028         1.452000 96.700000 202.000000 0.765000 0.000000                 
U013             LINDBERGH        JSP2-030         2.158000 95.400000 396.000000 0.945000 0.000000                 
U014             LINDBERGH        JSP2-034         1.370000 98.600000 184.000000 0.769000 0.000000                 
U015             LINDBERGH        JSP2-036         1.409000 98.700000 183.000000 0.566000 0.000000                 
U016             LINDBERGH        JSP2-038         1.259000 99.400000 164.000000 0.628000 0.000000                 
U017             LINDBERGH        JSP2-040         1.554000 94.900000 185.000000 0.682000 0.000000                 
U018             LINDBERGH        BIOSWALE-K       0.431000 38.000000 131.000000 3.139000 0.000000                 
U019             LINDBERGH        BIOSWALE-K       0.749000 100.000000 130.000000 5.000000 0.000000                 
U020             LINDBERGH        BIOSWALE-K       0.232000 85.100000 85.000000 0.422000 0.000000                 
U021             LINDBERGH        BIOSWALE-K       0.127000 86.300000 73.000000 0.661000 0.000000                 
U022             LINDBERGH        BIOSWALE-A1      0.183000 100.000000 55.000000 0.343000 0.000000                 
U023             LINDBERGH        BIOSWALE-A1      0.824000 93.700000 125.000000 0.521000 0.000000                 
U024             LINDBERGH        BIOSWALE-A1      1.062000 94.600000 106.000000 0.460000 0.000000                 
U025             LINDBERGH        BIOSWALE-A1      0.419000 0.800000 559.000000 9.187000 0.000000                 
U026             LINDBERGH        BIOSWALE-H       0.556000 0.900000 539.000000 8.911000 0.000000                 
U027             LINDBERGH        BIOSWALE-I       0.716000 73.400000 325.000000 0.522000 0.000000                 
U028             LINDBERGH        BIOSWALE-FG      0.647000 89.900000 124.000000 0.151000 0.000000                 
U029             LINDBERGH        BIOSWALE-FG      4.267000 100.000000 620.000000 4.833000 0.000000                 
U030             LINDBERGH        BIOSWALE-FG      0.663000 91.400000 245.000000 0.850000 0.000000                 
U031             LINDBERGH        BIOSWALE-H       0.328000 98.500000 74.000000 0.778000 0.000000                 
U032             LINDBERGH        BIOSWALE-A2      1.234000 54.500000 429.000000 1.198000 0.000000                 
U033             LINDBERGH        BIOSWALE-B       0.488000 28.500000 143.000000 3.365000 0.000000                 
U034             LINDBERGH        BIOSWALE-C       1.336000 36.200000 258.000000 1.328000 0.000000                 
U035             LINDBERGH        BIOSWALE-B       1.276000 100.000000 192.000000 4.828000 0.000000                 
U036             LINDBERGH        BIOSWALE-C       1.692000 100.000000 254.000000 4.828000 0.000000                 
U037             LINDBERGH        BIOSWALE-D1      1.077000 15.200000 900.000000 5.756000 0.000000                 
U038             LINDBERGH        BIOSWALE-D1      2.112000 100.000000 368.000000 5.600000 0.000000                 
U039             LINDBERGH        BIOSWALE-E       3.820000 76.000000 598.000000 0.361000 0.000000                 
U040             LINDBERGH        JNS-103          1.205000 74.400000 76.000000 0.433000 0.000000                 
U041             LINDBERGH        JNS-102          0.763000 85.500000 48.000000 0.502000 0.000000                 
U042             LINDBERGH        JNS-113          1.053000 87.800000 184.000000 0.400000 0.000000                 
U043             LINDBERGH        JNS-112          0.187000 98.700000 31.000000 0.382000 0.000000                 
U044             LINDBERGH        JNS-117          3.715000 82.300000 648.000000 0.401000 0.000000                 
U045             LINDBERGH        JNS-115          0.296000 73.000000 88.000000 0.684000 0.000000                 
U046             LINDBERGH        JNS-115          0.392000 87.600000 40.000000 0.093000 0.000000                 
U047             LINDBERGH        JNS-115          1.258000 100.000000 422.000000 5.000000 0.000000                 
U048             LINDBERGH        JNS-116          0.030000 100.000000 8.000000 0.318000 0.000000                 
U049             LINDBERGH        JNS-119          0.173000 98.400000 29.000000 0.586000 0.000000                 
U050             LINDBERGH        JNS-120          0.208000 100.000000 45.000000 0.649000 0.000000                 
U051             LINDBERGH        JNS-123          0.355000 80.600000 90.000000 0.585000 0.000000                 
U052             LINDBERGH        JNS-124          2.294000 89.700000 256.000000 0.384000 0.000000                 

[SUBAREAS]
;;Subcatchment   N-Imperv   N-Perv     S-Imperv   S-Perv     PctZero    RouteTo    PctRouted 
;;-------------- ---------- ---------- ---------- ---------- ---------- ---------- ----------
C002             0.012000   0.050000   0.050000   0.100000   25.000000  OUTLET    
C003             0.012000   0.050000   0.050000   0.100000   25.000000  OUTLET    
C004             0.012000   0.050000   0.050000   0.100000   25.000000  OUTLET    
C005             0.012000   0.050000   0.050000   0.100000   25.000000  OUTLET    
C006             0.012000   0.050000   0.050000   0.100000   25.000000  OUTLET    
C007             0.012000   0.050000   0.050000   0.100000   25.000000  OUTLET    
C008             0.012000   0.050000   0.050000   0.100000   25.000000  OUTLET    
C009             0.012000   0.050000   0.050000   0.100000   25.000000  OUTLET    
C010             0.012000   0.050000   0.050000   0.100000   25.000000  OUTLET    
C011             0.012000   0.050000   0.050000   0.100000   25.000000  OUTLET    
C012             0.012000   0.050000   0.050000   0.100000   25.000000  OUTLET    
C013             0.012000   0.050000   0.050000   0.100000   25.000000  OUTLET    
C014             0.012000   0.050000   0.050000   0.100000   25.000000  OUTLET    
C015             0.012000   0.050000   0.050000   0.100000   25.000000  OUTLET    
C016             0.012000   0.050000   0.050000   0.100000   25.000000  OUTLET    
C017             0.012000   0.050000   0.050000   0.100000   25.000000  OUTLET    
C018             0.012000   0.050000   0.050000   0.100000   25.000000  OUTLET    
C019             0.012000   0.050000   0.050000   0.100000   25.000000  OUTLET    
C020             0.012000   0.050000   0.050000   0.100000   25.000000  OUTLET    
C021             0.012000   0.050000   0.050000   0.100000   25.000000  OUTLET    
C022             0.012000   0.050000   0.050000   0.100000   25.000000  OUTLET    
C023             0.012000   0.050000   0.050000   0.100000   25.000000  OUTLET    
C024             0.012000   0.050000   0.050000   0.100000   25.000000  OUTLET    
C026             0.012000   0.050000   0.050000   0.100000   25.000000  OUTLET    
C027             0.012000   0.050000   0.050000   0.100000   25.000000  OUTLET    
C028             0.012000   0.050000   0.050000   0.100000   25.000000  OUTLET    
C029             0.012000   0.050000   0.050000   0.100000   25.000000  OUTLET    
C030             0.012000   0.050000   0.050000   0.100000   25.000000  OUTLET    
C031             0.012000   0.050000   0.050000   0.100000   25.000000  OUTLET    
C032             0.012000   0.050000   0.050000   0.100000   25.000000  OUTLET    
C033             0.012000   0.050000   0.050000   0.100000   25.000000  OUTLET    
E005             0.012000   0.050000   0.050000   0.100000   25.000000  OUTLET    
F007             0.012000   0.050000   0.050000   0.100000   25.000000  OUTLET    
F008             0.012000   0.050000   0.050000   0.100000   25.000000  OUTLET    
F009             0.012000   0.050000   0.050000   0.100000   25.000000  OUTLET    
F010             0.012000   0.050000   0.050000   0.100000   25.000000  OUTLET    
F011             0.012000   0.050000   0.050000   0.100000   25.000000  OUTLET    
F012             0.012000   0.050000   0.050000   0.100000   25.000000  OUTLET    
F013             0.012000   0.050000   0.050000   0.100000   25.000000  OUTLET    
F014             0.012000   0.050000   0.050000   0.100000   25.000000  OUTLET    
F015             0.012000   0.050000   0.050000   0.100000   25.000000  OUTLET    
F016             0.012000   0.050000   0.050000   0.100000   25.000000  OUTLET    
F017             0.012000   0.050000   0.050000   0.100000   25.000000  OUTLET    
F018             0.012000   0.050000   0.050000   0.100000   25.000000  OUTLET    
F019             0.012000   0.050000   0.050000   0.100000   25.000000  OUTLET    
F020             0.012000   0.050000   0.050000   0.100000   25.000000  OUTLET    
F021             0.012000   0.050000   0.050000   0.100000   25.000000  OUTLET    
F022             0.012000   0.050000   0.050000   0.100000   25.000000  OUTLET    
F023             0.012000   0.050000   0.050000   0.100000   25.000000  OUTLET    
F024             0.012000   0.050000   0.050000   0.100000   25.000000  OUTLET    
F025             0.012000   0.050000   0.050000   0.100000   25.000000  OUTLET    
F026             0.012000   0.050000   0.050000   0.100000   25.000000  OUTLET    
F027             0.012000   0.050000   0.050000   0.100000   25.000000  OUTLET    
F028             0.012000   0.050000   0.050000   0.100000   25.000000  OUTLET    
F029             0.012000   0.050000   0.050000   0.100000   25.000000  OUTLET    
F030             0.012000   0.050000   0.050000   0.100000   25.000000  OUTLET    
F031             0.012000   0.050000   0.050000   0.100000   25.000000  OUTLET    
F032             0.012000   0.050000   0.050000   0.100000   25.000000  OUTLET    
F033             0.012000   0.050000   0.050000   0.100000   25.000000  OUTLET    
F034             0.012000   0.050000   0.050000   0.100000   25.000000  OUTLET    
F035             0.012000   0.050000   0.050000   0.100000   25.000000  OUTLET    
F036             0.012000   0.050000   0.050000   0.100000   25.000000  OUTLET    
F037             0.012000   0.050000   0.050000   0.100000   25.000000  OUTLET    
H002             0.012000   0.050000   0.050000   0.100000   25.000000  OUTLET    
H003             0.012000   0.050000   0.050000   0.100000   25.000000  OUTLET    
H004             0.012000   0.050000   0.050000   0.100000   25.000000  OUTLET    
H005             0.012000   0.050000   0.050000   0.100000   25.000000  OUTLET    
H006             0.012000   0.050000   0.050000   0.100000   25.000000  OUTLET    
H007             0.012000   0.050000   0.050000   0.100000   25.000000  OUTLET    
H008             0.012000   0.050000   0.050000   0.100000   25.000000  OUTLET    
H009             0.012000   0.050000   0.050000   0.100000   25.000000  OUTLET    
H010             0.012000   0.050000   0.050000   0.100000   25.000000  OUTLET    