[TITLE]
Scenario Run :  BASE
SCENARIO philosopy:
DataSets are for full network (ie incls both NW and NE)
Facilities used to swtich off things (rather than having to set data val=zero). ie Network is Visible

[OPTIONS]
;Option and Files Scenario Set: OPT-7, NW good Contunity Results, SCNO NW2040-1Yr
FLOW_UNITS	LPS
INFILTRATION	HORTON
FLOW_ROUTING	DYNWAVE
ALLOW_PONDING	NO
DRY_DAYS	5.000000
SKIP_STEADY_STATE 	NO
IGNORE_RAINFALL	NO
IGNORE_SNOWMELT	YES
IGNORE_GROUNDWATER	YES
IGNORE_QUALITY	YES
FORCE_MAIN_EQUATION	D-W
LINK_OFFSETS	DEPTH
MIN_SLOPE	0.001000
START_DATE	08/22/2008
START_TIME	00:00
END_DATE	08/23/2008
END_TIME	23:00
REPORT_START_DATE	08/22/2008
REPORT_START_TIME	00:00
SWEEP_START	01/01
SWEEP_END	12/31
WET_STEP	00:10:00
DRY_STEP	00:20:00
ROUTING_STEP	4
REPORT_STEP	00:01:00
INERTIAL_DAMPING	PARTIAL
VARIABLE_STEP	1.000000
MINIMUM_STEP	0.5
LENGTHENING_STEP	1
MIN_SURFAREA	0.000000
NORMAL_FLOW_LIMITED	SLOPE
MAX_TRIALS	8
HEAD_TOLERANCE	0.000100

[FILES]

[RAINGAGES]
; Beehive Raingage
RAINGAGE-3	VOLUME	1.000000	1.000000	TIMESERIES	TIMESERI-D2		
; GPurkisss Raingage
RAINGAGE-5	VOLUME	1.000000	1.000000	TIMESERIES	TIMESERI-D2		
; GColeman Raingage
RAINGAGE-7	VOLUME	1.000000	1.000000	TIMESERIES	TIMESERI-D2		
; GNelson Raingage
RAINGAGE-9	VOLUME	1.000000	1.000000	TIMESERIES	TIMESERI-D2		

[HYDROGRAPHS]
; 
HG-05YR	RAINGAGE-9
HG-05YR	ALL	Short	0.098000	1.000000	2.000000	0.000000	0.000000	0.000000
HG-05YR	ALL	Medium	0.000000	0.000000	0.000000	0.000000	0.000000	0.000000
HG-05YR	ALL	Long	0.000000	0.000000	0.000000	0.000000	0.000000	0.000000
; 
HG-0TST	RAINGAGE-9
HG-0TST	ALL	Short	1.000000	1.000000	10.000000	0.000000	0.000000	0.000000
HG-0TST	ALL	Medium	0.000000	0.000000	0.000000	0.000000	0.000000	0.000000
HG-0TST	ALL	Long	0.000000	0.000000	0.000000	0.000000	0.000000	0.000000
; 
HG-ADAM-10YR	RAINGAGE-9
HG-ADAM-10YR	ALL	Short	0.098000	1.000000	2.000000	0.000000	0.000000	0.000000
HG-ADAM-10YR	ALL	Medium	0.000000	0.000000	0.000000	0.000000	0.000000	0.000000
HG-ADAM-10YR	ALL	Long	0.000000	0.000000	0.000000	0.000000	0.000000	0.000000
; 
HG-BANK-02YR	RAINGAGE-9
HG-BANK-02YR	ALL	Short	0.098000	1.000000	2.000000	0.000000	0.000000	0.000000
HG-BANK-02YR	ALL	Medium	0.000000	0.000000	0.000000	0.000000	0.000000	0.000000
HG-BANK-02YR	ALL	Long	0.000000	0.000000	0.000000	0.000000	0.000000	0.000000
; 
HG-BANK-10YR	RAINGAGE-9
HG-BANK-10YR	ALL	Short	0.121000	1.000000	2.000000	0.000000	0.000000	0.000000
HG-BANK-10YR	ALL	Medium	0.000000	0.000000	0.000000	0.000000	0.000000	0.000000
HG-BANK-10YR	ALL	Long	0.000000	0.000000	0.000000	0.000000	0.000000	0.000000
; 
HG-BARY-02YR	RAINGAGE-9
HG-BARY-02YR	ALL	Short	0.001000	1.000000	2.000000	0.000000	0.000000	0.000000
HG-BARY-02YR	ALL	Medium	0.000000	0.000000	0.000000	0.000000	0.000000	0.000000
HG-BARY-02YR	ALL	Long	0.000000	0.000000	0.000000	0.000000	0.000000	0.000000
; 
HG-BARY-10YR	RAINGAGE-9
HG-BARY-10YR	ALL	Short	0.048000	1.000000	2.000000	0.000000	0.000000	0.000000
HG-BARY-10YR	ALL	Medium	0.000000	0.000000	0.000000	0.000000	0.000000	0.000000
HG-BARY-10YR	ALL	Long	0.000000	0.000000	0.000000	0.000000	0.000000	0.000000
; 
HG-BATT-10YR	RAINGAGE-9
HG-BATT-10YR	ALL	Short	0.000000	2.000000	2.000000	0.000000	0.000000	0.000000
HG-BATT-10YR	ALL	Medium	0.000000	0.000000	0.000000	0.000000	0.000000	0.000000
HG-BATT-10YR	ALL	Long	0.000000	0.000000	0.000000	0.000000	0.000000	0.000000
; 
HG-BROO-10YR	RAINGAGE-9
HG-BROO-10YR	ALL	Short	0.035000	1.000000	2.000000	0.000000	0.000000	0.000000
HG-BROO-10YR	ALL	Medium	0.000000	0.000000	0.000000	0.000000	0.000000	0.000000
HG-BROO-10YR	ALL	Long	0.000000	0.000000	0.000000	0.000000	0.000000	0.000000
; 
HG-BUDE-02YR	RAINGAGE-9
HG-BUDE-02YR	ALL	Short	0.034000	1.000000	2.000000	0.000000	0.000000	0.000000
HG-BUDE-02YR	ALL	Medium	0.000000	0.000000	0.000000	0.000000	0.000000	0.000000
HG-BUDE-02YR	ALL	Long	0.000000	0.000000	0.000000	0.000000	0.000000	0.000000
; 
HG-BUDE-10YR	RAINGAGE-9
HG-BUDE-10YR	ALL	Short	0.048000	1.000000	2.000000	0.000000	0.000000	0.000000
HG-BUDE-10YR	ALL	Medium	0.000000	0.000000	0.000000	0.000000	0.000000	0.000000
HG-BUDE-10YR	ALL	Long	0.000000	0.000000	0.000000	0.000000	0.000000	0.000000
; 
HG-BUDW-02YR	RAINGAGE-9
HG-BUDW-02YR	ALL	Short	0.102000	1.000000	2.000000	0.000000	0.000000	0.000000
HG-BUDW-02YR	ALL	Medium	0.000000	0.000000	0.000000	0.000000	0.000000	0.000000
HG-BUDW-02YR	ALL	Long	0.000000	0.000000	0.000000	0.000000	0.000000	0.000000
; 
HG-BUDW-10YR	RAINGAGE-9
HG-BUDW-10YR	ALL	Short	0.136000	1.000000	2.000000	0.000000	0.000000	0.000000
HG-BUDW-10YR	ALL	Medium	0.000000	0.000000	0.000000	0.000000	0.000000	0.000000
HG-BUDW-10YR	ALL	Long	0.000000	0.000000	0.000000	0.000000	0.000000	0.000000
; 
HG-BURL-02YR	RAINGAGE-9
HG-BURL-02YR	ALL	Short	0.055000	1.000000	2.000000	0.000000	0.000000	0.000000
HG-BURL-02YR	ALL	Medium	0.000000	0.000000	0.000000	0.000000	0.000000	0.000000
HG-BURL-02YR	ALL	Long	0.000000	0.000000	0.000000	0.000000	0.000000	0.000000
; 
HG-BURL-10YR	RAINGAGE-9
HG-BURL-10YR	ALL	Short	0.032000	1.000000	2.000000	0.000000	0.000000	0.000000
HG-BURL-10YR	ALL	Medium	0.000000	0.000000	0.000000	0.000000	0.000000	0.000000
HG-BURL-10YR	ALL	Long	0.000000	0.000000	0.000000	0.000000	0.000000	0.000000
; 
HG-CHER-02YR	RAINGAGE-9
HG-CHER-02YR	ALL	Short	0.068000	1.000000	2.000000	0.000000	0.000000	0.000000
HG-CHER-02YR	ALL	Medium	0.000000	0.000000	0.000000	0.000000	0.000000	0.000000
HG-CHER-02YR	ALL	Long	0.000000	0.000000	0.000000	0.000000	0.000000	0.000000
; 
HG-CHER-10YR	RAINGAGE-9
HG-CHER-10YR	ALL	Short	0.091000	1.000000	2.000000	0.000000	0.000000	0.000000
HG-CHER-10YR	ALL	Medium	0.000000	0.000000	0.000000	0.000000	0.000000	0.000000
HG-CHER-10YR	ALL	Long	0.000000	0.000000	0.000000	0.000000	0.000000	0.000000
; 
HG-CLEA-02YR	RAINGAGE-9
HG-CLEA-02YR	ALL	Short	0.102000	1.000000	2.000000	0.000000	0.000000	0.000000
HG-CLEA-02YR	ALL	Medium	0.000000	0.000000	0.000000	0.000000	0.000000	0.000000
HG-CLEA-02YR	ALL	Long	0.000000	0.000000	0.000000	0.000000	0.000000	0.000000
; 
HG-CLEA-10YR	RAINGAGE-9
HG-CLEA-10YR	ALL	Short	0.136000	1.000000	2.000000	0.000000	0.000000	0.000000
HG-CLEA-10YR	ALL	Medium	0.000000	0.000000	0.000000	0.000000	0.000000	0.000000
HG-CLEA-10YR	ALL	Long	0.000000	0.000000	0.000000	0.000000	0.000000	0.000000
; 
HG-COLN-02YR	RAINGAGE-9
HG-COLN-02YR	ALL	Short	0.059000	1.000000	2.000000	0.000000	0.000000	0.000000
HG-COLN-02YR	ALL	Medium	0.000000	0.000000	0.000000	0.000000	0.000000	0.000000
HG-COLN-02YR	ALL	Long	0.000000	0.000000	0.000000	0.000000	0.000000	0.000000
; 
HG-COLN-10YR	RAINGAGE-9
HG-COLN-10YR	ALL	Short	0.087000	1.000000	2.000000	0.000000	0.000000	0.000000
HG-COLN-10YR	ALL	Medium	0.000000	0.000000	0.000000	0.000000	0.000000	0.000000
HG-COLN-10YR	ALL	Long	0.000000	0.000000	0.000000	0.000000	0.000000	0.000000
; 
HG-COLS-10YR	RAINGAGE-9
HG-COLS-10YR	ALL	Short	0.091000	1.000000	2.000000	0.000000	0.000000	0.000000
HG-COLS-10YR	ALL	Medium	0.000000	0.000000	0.000000	0.000000	0.000000	0.000000
HG-COLS-10YR	ALL	Long	0.000000	0.000000	0.000000	0.000000	0.000000	0.000000
; 
HG-COVE-02YR	RAINGAGE-9
HG-COVE-02YR	ALL	Short	0.098000	1.000000	2.000000	0.000000	0.000000	0.000000
HG-COVE-02YR	ALL	Medium	0.000000	0.000000	0.000000	0.000000	0.000000	0.000000
HG-COVE-02YR	ALL	Long	0.000000	0.000000	0.000000	0.000000	0.000000	0.000000
; 
HG-COVE-10YR	RAINGAGE-9
HG-COVE-10YR	ALL	Short	0.121000	1.000000	2.000000	0.000000	0.000000	0.000000
HG-COVE-10YR	ALL	Medium	0.000000	0.000000	0.000000	0.000000	0.000000	0.000000
HG-COVE-10YR	ALL	Long	0.000000	0.000000	0.000000	0.000000	0.000000	0.000000
; 
HG-CUBI-10YR	RAINGAGE-9
HG-CUBI-10YR	ALL	Short	0.048000	1.000000	2.000000	0.000000	0.000000	0.000000
HG-CUBI-10YR	ALL	Medium	0.000000	0.000000	0.000000	0.000000	0.000000	0.000000
HG-CUBI-10YR	ALL	Long	0.000000	0.000000	0.000000	0.000000	0.000000	0.000000
; 
HG-DECA-10YR	RAINGAGE-9
HG-DECA-10YR	ALL	Short	0.067000	1.000000	2.000000	0.000000	0.000000	0.000000
HG-DECA-10YR	ALL	Medium	0.000000	0.000000	0.000000	0.000000	0.000000	0.000000
HG-DECA-10YR	ALL	Long	0.000000	0.000000	0.000000	0.000000	0.000000	0.000000
; 
HG-DILP-02YR	RAINGAGE-9
HG-DILP-02YR	ALL	Short	0.034000	1.000000	2.000000	0.000000	0.000000	0.000000
HG-DILP-02YR	ALL	Medium	0.000000	0.000000	0.000000	0.000000	0.000000	0.000000
HG-DILP-02YR	ALL	Long	0.000000	0.000000	0.000000	0.000000	0.000000	0.000000
; 
HG-DILP-10YR	RAINGAGE-9
HG-DILP-10YR	ALL	Short	0.048000	1.000000	2.000000	0.000000	0.000000	0.000000
HG-DILP-10YR	ALL	Medium	0.000000	0.000000	0.000000	0.000000	0.000000	0.000000
HG-DILP-10YR	ALL	Long	0.000000	0.000000	0.000000	0.000000	0.000000	0.000000
; 
HG-DILS-10YR	RAINGAGE-9
HG-DILS-10YR	ALL	Short	0.048000	1.000000	2.000000	0.000000	0.000000	0.000000
HG-DILS-10YR	ALL	Medium	0.000000	0.000000	0.000000	0.000000	0.000000	0.000000
HG-DILS-10YR	ALL	Long	0.000000	0.000000	0.000000	0.000000	0.000000	0.000000
; 
HG-DRYH-10YR	RAINGAGE-9
HG-DRYH-10YR	ALL	Short	0.034000	1.000000	2.000000	0.000000	0.000000	0.000000
HG-DRYH-10YR	ALL	Medium	0.000000	0.000000	0.000000	0.000000	0.000000	0.000000
HG-DRYH-10YR	ALL	Long	0.000000	0.000000	0.000000	0.000000	0.000000	0.000000
; 
HG-ENDE-02YR	RAINGAGE-9
HG-ENDE-02YR	ALL	Short	0.102000	1.000000	2.000000	0.000000	0.000000	0.000000
HG-ENDE-02YR	ALL	Medium	0.000000	0.000000	0.000000	0.000000	0.000000	0.000000
HG-ENDE-02YR	ALL	Long	0.000000	0.000000	0.000000	0.000000	0.000000	0.000000
; 
HG-ENDE-10YR	RAINGAGE-9
HG-ENDE-10YR	ALL	Short	0.136000	1.000000	2.000000	0.000000	0.000000	0.000000
HG-ENDE-10YR	ALL	Medium	0.000000	0.000000	0.000000	0.000000	0.000000	0.000000
HG-ENDE-10YR	ALL	Long	0.000000	0.000000	0.000000	0.000000	0.000000	0.000000
; 
HG-ETHA-10YR	RAINGAGE-9
HG-ETHA-10YR	ALL	Short	0.048000	1.000000	2.000000	0.000000	0.000000	0.000000
HG-ETHA-10YR	ALL	Medium	0.000000	0.000000	0.000000	0.000000	0.000000	0.000000
HG-ETHA-10YR	ALL	Long	0.000000	0.000000	0.000000	0.000000	0.000000	0.000000
; 
HG-FAIR-10YR	RAINGAGE-9
HG-FAIR-10YR	ALL	Short	0.032000	1.000000	2.000000	0.000000	0.000000	0.000000
HG-FAIR-10YR	ALL	Medium	0.000000	0.000000	0.000000	0.000000	0.000000	0.000000
HG-FAIR-10YR	ALL	Long	0.000000	0.000000	0.000000	0.000000	0.000000	0.000000
; 
HG-FARN-10YR	RAINGAGE-9
HG-FARN-10YR	ALL	Short	0.091000	1.000000	2.000000	0.000000	0.000000	0.000000
HG-FARN-10YR	ALL	Medium	0.000000	0.000000	0.000000	0.000000	0.000000	0.000000
HG-FARN-10YR	ALL	Long	0.000000	0.000000	0.000000	0.000000	0.000000	0.000000
; 
HG-FAUL-10YR	RAINGAGE-9
HG-FAUL-10YR	ALL	Short	0.022000	1.000000	2.000000	0.000000	0.000000	0.000000
HG-FAUL-10YR	ALL	Medium	0.000000	0.000000	0.000000	0.000000	0.000000	0.000000
HG-FAUL-10YR	ALL	Long	0.000000	0.000000	0.000000	0.000000	0.000000	0.000000
; 
HG-FRAN-10YR	RAINGAGE-9
HG-FRAN-10YR	ALL	Short	0.048000	1.000000	2.000000	0.000000	0.000000	0.000000
HG-FRAN-10YR	ALL	Medium	0.000000	0.000000	0.000000	0.000000	0.000000	0.000000
HG-FRAN-10YR	ALL	Long	0.000000	0.000000	0.000000	0.000000	0.000000	0.000000
; 
HG-FSCH-10YR	RAINGAGE-9
HG-FSCH-10YR	ALL	Short	0.011000	1.000000	2.000000	0.000000	0.000000	0.000000
HG-FSCH-10YR	ALL	Medium	0.000000	0.000000	0.000000	0.000000	0.000000	0.000000
HG-FSCH-10YR	ALL	Long	0.000000	0.000000	0.000000	0.000000	0.000000	0.000000
; 
HG-GANW-10YR	RAINGAGE-9
HG-GANW-10YR	ALL	Short	0.018000	1.000000	2.000000	0.000000	0.000000	0.000000
HG-GANW-10YR	ALL	Medium	0.000000	0.000000	0.000000	0.000000	0.000000	0.000000
HG-GANW-10YR	ALL	Long	0.000000	0.000000	0.000000	0.000000	0.000000	0.000000
; 
HG-GASC-02YR	RAINGAGE-9
HG-GASC-02YR	ALL	Short	0.034000	1.000000	2.000000	0.000000	0.000000	0.000000
HG-GASC-02YR	ALL	Medium	0.000000	0.000000	0.000000	0.000000	0.000000	0.000000
HG-GASC-02YR	ALL	Long	0.000000	0.000000	0.000000	0.000000	0.000000	0.000000
; 
HG-GASC-10YR	RAINGAGE-9
HG-GASC-10YR	ALL	Short	0.048000	1.000000	2.000000	0.000000	0.000000	0.000000
HG-GASC-10YR	ALL	Medium	0.000000	0.000000	0.000000	0.000000	0.000000	0.000000
HG-GASC-10YR	ALL	Long	0.000000	0.000000	0.000000	0.000000	0.000000	0.000000
; 
HG-GAW-02YR	RAINGAGE-9
HG-GAW-02YR	ALL	Short	0.034000	1.000000	2.000000	0.000000	0.000000	0.000000
HG-GAW-02YR	ALL	Medium	0.000000	0.000000	0.000000	0.000000	0.000000	0.000000
HG-GAW-02YR	ALL	Long	0.000000	0.000000	0.000000	0.000000	0.000000	0.000000
; 
HG-GAW-10YR	RAINGAGE-9
HG-GAW-10YR	ALL	Short	0.038000	1.000000	2.000000	0.000000	0.000000	0.000000
HG-GAW-10YR	ALL	Medium	0.000000	0.000000	0.000000	0.000000	0.000000	0.000000
HG-GAW-10YR	ALL	Long	0.000000	0.000000	0.000000	0.000000	0.000000	0.000000
; 
HG-GBUD-01YR	RAINGAGE-9
HG-GBUD-01YR	ALL	Short	0.090000	1.000000	2.000000	0.000000	0.000000	0.000000
HG-GBUD-01YR	ALL	Medium	0.000000	0.000000	0.000000	0.000000	0.000000	0.000000
HG-GBUD-01YR	ALL	Long	0.000000	0.000000	0.000000	0.000000	0.000000	0.000000
; 
HG-GBUD-02YR	RAINGAGE-9
HG-GBUD-02YR	ALL	Short	0.102000	1.000000	2.000000	0.000000	0.000000	0.000000
HG-GBUD-02YR	ALL	Medium	0.000000	0.000000	0.000000	0.000000	0.000000	0.000000
HG-GBUD-02YR	ALL	Long	0.000000	0.000000	0.000000	0.000000	0.000000	0.000000
; 
HG-GBUD-05YR	RAINGAGE-9
HG-GBUD-05YR	ALL	Short	0.120000	1.000000	2.000000	0.000000	0.000000	0.000000
HG-GBUD-05YR	ALL	Medium	0.000000	0.000000	0.000000	0.000000	0.000000	0.000000
HG-GBUD-05YR	ALL	Long	0.000000	0.000000	0.000000	0.000000	0.000000	0.000000
; 
HG-GBUD-10YR	RAINGAGE-9
HG-GBUD-10YR	ALL	Short	0.136000	1.000000	2.000000	0.000000	0.000000	0.000000
HG-GBUD-10YR	ALL	Medium	0.000000	0.000000	0.000000	0.000000	0.000000	0.000000
HG-GBUD-10YR	ALL	Long	0.000000	0.000000	0.000000	0.000000	0.000000	0.000000
; 
HG-GBUD-6MNTH	RAINGAGE-9
HG-GBUD-6MNTH	ALL	Short	0.079000	1.000000	2.000000	0.000000	0.000000	0.000000
HG-GBUD-6MNTH	ALL	Medium	0.000000	0.000000	0.000000	0.000000	0.000000	0.000000
HG-GBUD-6MNTH	ALL	Long	0.000000	0.000000	0.000000	0.000000	0.000000	0.000000
; 
HG-GCOLE-01YR	RAINGAGE-9
HG-GCOLE-01YR	ALL	Short	0.060000	1.000000	2.000000	0.000000	0.000000	0.000000
HG-GCOLE-01YR	ALL	Medium	0.000000	0.000000	0.000000	0.000000	0.000000	0.000000
HG-GCOLE-01YR	ALL	Long	0.000000	0.000000	0.000000	0.000000	0.000000	0.000000
; 
HG-GCOLE-02YR	RAINGAGE-9
HG-GCOLE-02YR	ALL	Short	0.068000	1.000000	2.000000	0.000000	0.000000	0.000000
HG-GCOLE-02YR	ALL	Medium	0.000000	0.000000	0.000000	0.000000	0.000000	0.000000
HG-GCOLE-02YR	ALL	Long	0.000000	0.000000	0.000000	0.000000	0.000000	0.000000
; 
HG-GCOLE-05YR	RAINGAGE-9
HG-GCOLE-05YR	ALL	Short	0.080000	1.000000	2.000000	0.000000	0.000000	0.000000
HG-GCOLE-05YR	ALL	Medium	0.000000	0.000000	0.000000	0.000000	0.000000	0.000000
HG-GCOLE-05YR	ALL	Long	0.000000	0.000000	0.000000	0.000000	0.000000	0.000000
; 
HG-GCOLE-10YR	RAINGAGE-9
HG-GCOLE-10YR	ALL	Short	0.091000	1.000000	2.000000	0.000000	0.000000	0.000000
HG-GCOLE-10YR	ALL	Medium	0.000000	0.000000	0.000000	0.000000	0.000000	0.000000
HG-GCOLE-10YR	ALL	Long	0.000000	0.000000	0.000000	0.000000	0.000000	0.000000
; 
HG-GCOLE-6MNTH	RAINGAGE-9
HG-GCOLE-6MNTH	ALL	Short	0.053000	1.000000	2.000000	0.000000	0.000000	0.000000
HG-GCOLE-6MNTH	ALL	Medium	0.000000	0.000000	0.000000	0.000000	0.000000	0.000000
HG-GCOLE-6MNTH	ALL	Long	0.000000	0.000000	0.000000	0.000000	0.000000	0.000000
; 
HG-GEOR-10YR	RAINGAGE-9
HG-GEOR-10YR	ALL	Short	0.068000	1.000000	2.000000	0.000000	0.000000	0.000000
HG-GEOR-10YR	ALL	Medium	0.000000	0.000000	0.000000	0.000000	0.000000	0.000000
HG-GEOR-10YR	ALL	Long	0.000000	0.000000	0.000000	0.000000	0.000000	0.000000
; 
HG-GMURPHY-01YR	RAINGAGE-9
HG-GMURPHY-01YR	ALL	Short	0.060000	1.000000	2.000000	0.000000	0.000000	0.000000
HG-GMURPHY-01YR	ALL	Medium	0.000000	0.000000	0.000000	0.000000	0.000000	0.000000
HG-GMURPHY-01YR	ALL	Long	0.000000	0.000000	0.000000	0.000000	0.000000	0.000000
; 
HG-GMURPHY-02YR	RAINGAGE-9
HG-GMURPHY-02YR	ALL	Short	0.068000	1.000000	2.000000	0.000000	0.000000	0.000000
HG-GMURPHY-02YR	ALL	Medium	0.000000	0.000000	0.000000	0.000000	0.000000	0.000000
HG-GMURPHY-02YR	ALL	Long	0.000000	0.000000	0.000000	0.000000	0.000000	0.000000
; 
HG-GMURPHY-05YR	RAINGAGE-9
HG-GMURPHY-05YR	ALL	Short	0.080000	1.000000	2.000000	0.000000	0.000000	0.000000
HG-GMURPHY-05YR	ALL	Medium	0.000000	0.000000	0.000000	0.000000	0.000000	0.000000
HG-GMURPHY-05YR	ALL	Long	0.000000	0.000000	0.000000	0.000000	0.000000	0.000000
; 
HG-GMURPHY-10YR	RAINGAGE-9
HG-GMURPHY-10YR	ALL	Short	0.091000	1.000000	2.000000	0.000000	0.000000	0.000000
HG-GMURPHY-10YR	ALL	Medium	0.000000	0.000000	0.000000	0.000000	0.000000	0.000000
HG-GMURPHY-10YR	ALL	Long	0.000000	0.000000	0.000000	0.000000	0.000000	0.000000
; 
HG-GPURK-01YR	RAINGAGE-9
HG-GPURK-01YR	ALL	Short	0.090000	1.000000	2.000000	0.000000	0.000000	0.000000
HG-GPURK-01YR	ALL	Medium	0.000000	0.000000	0.000000	0.000000	0.000000	0.000000
HG-GPURK-01YR	ALL	Long	0.000000	0.000000	0.000000	0.000000	0.000000	0.000000
; 
HG-GPURK-02YR	RAINGAGE-9
HG-GPURK-02YR	ALL	Short	0.098000	1.000000	2.000000	0.000000	0.000000	0.000000
HG-GPURK-02YR	ALL	Medium	0.000000	0.000000	0.000000	0.000000	0.000000	0.000000
HG-GPURK-02YR	ALL	Long	0.000000	0.000000	0.000000	0.000000	0.000000	0.000000
; 
HG-GPURK-05YR	RAINGAGE-9
HG-GPURK-05YR	ALL	Short	0.110000	1.000000	2.000000	0.000000	0.000000	0.000000
HG-GPURK-05YR	ALL	Medium	0.000000	0.000000	0.000000	0.000000	0.000000	0.000000
HG-GPURK-05YR	ALL	Long	0.000000	0.000000	0.000000	0.000000	0.000000	0.000000
; 
HG-GPURK-10YR	RAINGAGE-9
HG-GPURK-10YR	ALL	Short	0.121000	1.000000	2.000000	0.000000	0.000000	0.000000
HG-GPURK-10YR	ALL	Medium	0.000000	0.000000	0.000000	0.000000	0.000000	0.000000
HG-GPURK-10YR	ALL	Long	0.000000	0.000000	0.000000	0.000000	0.000000	0.000000
; 
HG-GPURK-6MNTH	RAINGAGE-5
HG-GPURK-6MNTH	ALL	Short	0.083000	1.000000	2.000000	0.000000	0.000000	0.000000
HG-GPURK-6MNTH	ALL	Medium	0.000000	0.000000	0.000000	0.000000	0.000000	0.000000
HG-GPURK-6MNTH	ALL	Long	0.000000	0.000000	0.000000	0.000000	0.000000	0.000000
; 
HG-HITA-10YR	RAINGAGE-9
HG-HITA-10YR	ALL	Short	0.076000	1.000000	2.000000	0.000000	0.000000	0.000000
HG-HITA-10YR	ALL	Medium	0.000000	0.000000	0.000000	0.000000	0.000000	0.000000
HG-HITA-10YR	ALL	Long	0.000000	0.000000	0.000000	0.000000	0.000000	0.000000
; 
HG-HOPE-10YR	RAINGAGE-9
HG-HOPE-10YR	ALL	Short	0.022000	1.000000	2.000000	0.000000	0.000000	0.000000
HG-HOPE-10YR	ALL	Medium	0.000000	0.000000	0.000000	0.000000	0.000000	0.000000
HG-HOPE-10YR	ALL	Long	0.000000	0.000000	0.000000	0.000000	0.000000	0.000000
; 
HG-HOSP-10YR	RAINGAGE-9
HG-HOSP-10YR	ALL	Short	0.032000	1.000000	2.000000	0.000000	0.000000	0.000000
HG-HOSP-10YR	ALL	Medium	0.000000	0.000000	0.000000	0.000000	0.000000	0.000000
HG-HOSP-10YR	ALL	Long	0.000000	0.000000	0.000000	0.000000	0.000000	0.000000
; 
HG-HOUL-10YR	RAINGAGE-9
HG-HOUL-10YR	ALL	Short	0.082000	1.000000	2.000000	0.000000	0.000000	0.000000
HG-HOUL-10YR	ALL	Medium	0.000000	0.000000	0.000000	0.000000	0.000000	0.000000
HG-HOUL-10YR	ALL	Long	0.000000	0.000000	0.000000	0.000000	0.000000	0.000000
; 
HG-IDAS-10YR	RAINGAGE-9
HG-IDAS-10YR	ALL	Short	0.091000	1.000000	2.000000	0.000000	0.000000	0.000000
HG-IDAS-10YR	ALL	Medium	0.000000	0.000000	0.000000	0.000000	0.000000	0.000000
HG-IDAS-10YR	ALL	Long	0.000000	0.000000	0.000000	0.000000	0.000000	0.000000
; 
HG-KING-02YR	RAINGAGE-9
HG-KING-02YR	ALL	Short	0.045000	1.000000	2.000000	0.000000	0.000000	0.000000
HG-KING-02YR	ALL	Medium	0.000000	0.000000	0.000000	0.000000	0.000000	0.000000
HG-KING-02YR	ALL	Long	0.000000	0.000000	0.000000	0.000000	0.000000	0.000000
; 
HG-KING-05YR	RAINGAGE-9
HG-KING-05YR	ALL	Short	0.053000	1.000000	2.000000	0.000000	0.000000	0.000000
HG-KING-05YR	ALL	Medium	0.000000	0.000000	0.000000	0.000000	0.000000	0.000000
HG-KING-05YR	ALL	Long	0.000000	0.000000	0.000000	0.000000	0.000000	0.000000
; 
HG-KING-10YR	RAINGAGE-9
HG-KING-10YR	ALL	Short	0.061000	1.000000	2.000000	0.000000	0.000000	0.000000
HG-KING-10YR	ALL	Medium	0.000000	0.000000	0.000000	0.000000	0.000000	0.000000
HG-KING-10YR	ALL	Long	0.000000	0.000000	0.000000	0.000000	0.000000	0.000000
; 
HG-KING-1YR	RAINGAGE-9
HG-KING-1YR	ALL	Short	0.040000	1.000000	2.000000	0.000000	0.000000	0.000000
HG-KING-1YR	ALL	Medium	0.000000	0.000000	0.000000	0.000000	0.000000	0.000000
HG-KING-1YR	ALL	Long	0.000000	0.000000	0.000000	0.000000	0.000000	0.000000
; 
HG-KING-6MNTH	RAINGAGE-9
HG-KING-6MNTH	ALL	Short	0.035000	1.000000	2.000000	0.000000	0.000000	0.000000
HG-KING-6MNTH	ALL	Medium	0.000000	0.000000	0.000000	0.000000	0.000000	0.000000
HG-KING-6MNTH	ALL	Long	0.000000	0.000000	0.000000	0.000000	0.000000	0.000000
; 
HG-KINR-01YR	RAINGAGE-9
HG-KINR-01YR	ALL	Short	0.047000	1.000000	2.000000	0.000000	0.000000	0.000000
HG-KINR-01YR	ALL	Medium	0.000000	0.000000	0.000000	0.000000	0.000000	0.000000
HG-KINR-01YR	ALL	Long	0.000000	0.000000	0.000000	0.000000	0.000000	0.000000
; 
HG-KINR-02YR	RAINGAGE-9
HG-KINR-02YR	ALL	Short	0.052000	1.000000	2.000000	0.000000	0.000000	0.000000
HG-KINR-02YR	ALL	Medium	0.000000	0.000000	0.000000	0.000000	0.000000	0.000000
HG-KINR-02YR	ALL	Long	0.000000	0.000000	0.000000	0.000000	0.000000	0.000000
; 
HG-KINR-05YR	RAINGAGE-9
HG-KINR-05YR	ALL	Short	0.060000	1.000000	2.000000	0.000000	0.000000	0.000000
HG-KINR-05YR	ALL	Medium	0.000000	0.000000	0.000000	0.000000	0.000000	0.000000
HG-KINR-05YR	ALL	Long	0.000000	0.000000	0.000000	0.000000	0.000000	0.000000
; 
HG-KINR-10YR	RAINGAGE-9
HG-KINR-10YR	ALL	Short	0.068000	1.000000	2.000000	0.000000	0.000000	0.000000
HG-KINR-10YR	ALL	Medium	0.000000	0.000000	0.000000	0.000000	0.000000	0.000000
HG-KINR-10YR	ALL	Long	0.000000	0.000000	0.000000	0.000000	0.000000	0.000000
; 
HG-KINR-6MNTH	RAINGAGE-9
HG-KINR-6MNTH	ALL	Short	0.035000	1.000000	2.000000	0.000000	0.000000	0.000000
HG-KINR-6MNTH	ALL	Medium	0.000000	0.000000	0.000000	0.000000	0.000000	0.000000
HG-KINR-6MNTH	ALL	Long	0.000000	0.000000	0.000000	0.000000	0.000000	0.000000
; 
HG-KINW-02YR	RAINGAGE-9
HG-KINW-02YR	ALL	Short	0.045000	1.000000	2.000000	0.000000	0.000000	0.000000
HG-KINW-02YR	ALL	Medium	0.000000	0.000000	0.000000	0.000000	0.000000	0.000000
HG-KINW-02YR	ALL	Long	0.000000	0.000000	0.000000	0.000000	0.000000	0.000000
; 
HG-LANE-02YR	RAINGAGE-9
HG-LANE-02YR	ALL	Short	0.034000	1.000000	2.000000	0.000000	0.000000	0.000000
HG-LANE-02YR	ALL	Medium	0.000000	0.000000	0.000000	0.000000	0.000000	0.000000
HG-LANE-02YR	ALL	Long	0.000000	0.000000	0.000000	0.000000	0.000000	0.000000
; 
HG-LANE-10YR	RAINGAGE-9
HG-LANE-10YR	ALL	Short	0.048000	1.000000	2.000000	0.000000	0.000000	0.000000
HG-LANE-10YR	ALL	Medium	0.000000	0.000000	0.000000	0.000000	0.000000	0.000000
HG-LANE-10YR	ALL	Long	0.000000	0.000000	0.000000	0.000000	0.000000	0.000000
; 
HG-MCL-01YR	RAINGAGE-3
HG-MCL-01YR	ALL	Short	0.050000	1.000000	2.000000	0.000000	0.000000	0.000000
HG-MCL-01YR	ALL	Medium	0.000000	0.000000	0.000000	0.000000	0.000000	0.000000
HG-MCL-01YR	ALL	Long	0.000000	0.000000	0.000000	0.000000	0.000000	0.000000
; 
HG-MCL-02YR	RAINGAGE-3
HG-MCL-02YR	ALL	Short	0.059000	1.000000	2.000000	0.000000	0.000000	0.000000
HG-MCL-02YR	ALL	Medium	0.000000	0.000000	0.000000	0.000000	0.000000	0.000000
HG-MCL-02YR	ALL	Long	0.000000	0.000000	0.000000	0.000000	0.000000	0.000000
; 
HG-MCL-05YR	RAINGAGE-3
HG-MCL-05YR	ALL	Short	0.074000	1.000000	2.000000	0.000000	0.000000	0.000000
HG-MCL-05YR	ALL	Medium	0.000000	0.000000	0.000000	0.000000	0.000000	0.000000
HG-MCL-05YR	ALL	Long	0.000000	0.000000	0.000000	0.000000	0.000000	0.000000
; 
HG-MCL-10YR	RAINGAGE-3
HG-MCL-10YR	ALL	Short	0.087000	1.000000	2.000000	0.000000	0.000000	0.000000
HG-MCL-10YR	ALL	Medium	0.000000	0.000000	0.000000	0.000000	0.000000	0.000000
HG-MCL-10YR	ALL	Long	0.000000	0.000000	0.000000	0.000000	0.000000	0.000000
; 
HG-MCL-3MNTH	RAINGAGE-3
HG-MCL-3MNTH	ALL	Short	0.036000	1.000000	2.000000	0.000000	0.000000	0.000000
HG-MCL-3MNTH	ALL	Medium	0.000000	0.000000	0.000000	0.000000	0.000000	0.000000
HG-MCL-3MNTH	ALL	Long	0.000000	0.000000	0.000000	0.000000	0.000000	0.000000
; 
HG-MCL-6MNTH	RAINGAGE-3
HG-MCL-6MNTH	ALL	Short	0.042000	1.000000	2.000000	0.000000	0.000000	0.000000
HG-MCL-6MNTH	ALL	Medium	0.000000	0.000000	0.000000	0.000000	0.000000	0.000000
HG-MCL-6MNTH	ALL	Long	0.000000	0.000000	0.000000	0.000000	0.000000	0.000000
; 
HG-MCLA-02YR	RAINGAGE-9
HG-MCLA-02YR	ALL	Short	0.059000	1.000000	2.000000	0.000000	0.000000	0.000000
HG-MCLA-02YR	ALL	Medium	0.000000	0.000000	0.000000	0.000000	0.000000	0.000000
HG-MCLA-02YR	ALL	Long	0.000000	0.000000	0.000000	0.000000	0.000000	0.000000
; 
HG-MCLA-10YR	RAINGAGE-9
HG-MCLA-10YR	ALL	Short	0.087000	1.000000	2.000000	0.000000	0.000000	0.000000
HG-MCLA-10YR	ALL	Medium	0.000000	0.000000	0.000000	0.000000	0.000000	0.000000
HG-MCLA-10YR	ALL	Long	0.000000	0.000000	0.000000	0.000000	0.000000	0.000000
; 
HG-MOOR-02YR	RAINGAGE-9
HG-MOOR-02YR	ALL	Short	0.065000	1.000000	2.000000	0.000000	0.000000	0.000000
HG-MOOR-02YR	ALL	Medium	0.000000	0.000000	0.000000	0.000000	0.000000	0.000000
HG-MOOR-02YR	ALL	Long	0.000000	0.000000	0.000000	0.000000	0.000000	0.000000
; 
HG-MOOR-10YR	RAINGAGE-9
HG-MOOR-10YR	ALL	Short	0.081000	1.000000	2.000000	0.000000	0.000000	0.000000
HG-MOOR-10YR	ALL	Medium	0.000000	0.000000	0.000000	0.000000	0.000000	0.000000
HG-MOOR-10YR	ALL	Long	0.000000	0.000000	0.000000	0.000000	0.000000	0.000000
; 
HG-MRRD-10YR	RAINGAGE-9
HG-MRRD-10YR	ALL	Short	0.098000	1.000000	2.000000	0.000000	0.000000	0.000000
HG-MRRD-10YR	ALL	Medium	0.000000	0.000000	0.000000	0.000000	0.000000	0.000000
HG-MRRD-10YR	ALL	Long	0.000000	0.000000	0.000000	0.000000	0.000000	0.000000
; 
HG-MRRW-01YR	RAINGAGE-9
HG-MRRW-01YR	ALL	Short	0.065000	1.000000	2.000000	0.000000	0.000000	0.000000
HG-MRRW-01YR	ALL	Medium	0.000000	0.000000	0.000000	0.000000	0.000000	0.000000
HG-MRRW-01YR	ALL	Long	0.000000	0.000000	0.000000	0.000000	0.000000	0.000000
; 
HG-MRRW-02YR	RAINGAGE-9
HG-MRRW-02YR	ALL	Short	0.074000	1.000000	2.000000	0.000000	0.000000	0.000000
HG-MRRW-02YR	ALL	Medium	0.000000	0.000000	0.000000	0.000000	0.000000	0.000000
HG-MRRW-02YR	ALL	Long	0.000000	0.000000	0.000000	0.000000	0.000000	0.000000
; 
HG-MRRW-05YR	RAINGAGE-9
HG-MRRW-05YR	ALL	Short	0.087000	1.000000	2.000000	0.000000	0.000000	0.000000
HG-MRRW-05YR	ALL	Medium	0.000000	0.000000	0.000000	0.000000	0.000000	0.000000
HG-MRRW-05YR	ALL	Long	0.000000	0.000000	0.000000	0.000000	0.000000	0.000000
; 
HG-MRRW-10YR	RAINGAGE-9
HG-MRRW-10YR	ALL	Short	0.098000	1.000000	2.000000	0.000000	0.000000	0.000000
HG-MRRW-10YR	ALL	Medium	0.000000	0.000000	0.000000	0.000000	0.000000	0.000000
HG-MRRW-10YR	ALL	Long	0.000000	0.000000	0.000000	0.000000	0.000000	0.000000
; 
HG-MULL-10YR	RAINGAGE-9
HG-MULL-10YR	ALL	Short	0.048000	1.000000	2.000000	0.000000	0.000000	0.000000
HG-MULL-10YR	ALL	Medium	0.000000	0.000000	0.000000	0.000000	0.000000	0.000000
HG-MULL-10YR	ALL	Long	0.000000	0.000000	0.000000	0.000000	0.000000	0.000000
; 
HG-MURP-02YR	RAINGAGE-7
HG-MURP-02YR	ALL	Short	0.068000	1.000000	2.000000	0.000000	0.000000	0.000000
HG-MURP-02YR	ALL	Medium	0.000000	0.000000	0.000000	0.000000	0.000000	0.000000
HG-MURP-02YR	ALL	Long	0.000000	0.000000	0.000000	0.000000	0.000000	0.000000
; 
HG-MURP-10YR	RAINGAGE-9
HG-MURP-10YR	ALL	Short	0.091000	1.000000	2.000000	0.000000	0.000000	0.000000
HG-MURP-10YR	ALL	Medium	0.000000	0.000000	0.000000	0.000000	0.000000	0.000000
HG-MURP-10YR	ALL	Long	0.000000	0.000000	0.000000	0.000000	0.000000	0.000000
; 
HG-NABR-02YR	RAINGAGE-9
HG-NABR-02YR	ALL	Short	0.007000	1.000000	2.000000	0.000000	0.000000	0.000000
HG-NABR-02YR	ALL	Medium	0.000000	0.000000	0.000000	0.000000	0.000000	0.000000
HG-NABR-02YR	ALL	Long	0.000000	0.000000	0.000000	0.000000	0.000000	0.000000
; 
HG-NABR-10YR	RAINGAGE-9
HG-NABR-10YR	ALL	Short	0.009000	1.000000	2.000000	0.000000	0.000000	0.000000
HG-NABR-10YR	ALL	Medium	0.000000	0.000000	0.000000	0.000000	0.000000	0.000000
HG-NABR-10YR	ALL	Long	0.000000	0.000000	0.000000	0.000000	0.000000	0.000000
; 
HG-NABU-01YR	RAINGAGE-9
HG-NABU-01YR	ALL	Short	0.012000	1.000000	2.000000	0.000000	0.000000	0.000000
HG-NABU-01YR	ALL	Medium	0.000000	0.000000	0.000000	0.000000	0.000000	0.000000
HG-NABU-01YR	ALL	Long	0.000000	0.000000	0.000000	0.000000	0.000000	0.000000
; 
HG-NABU-02YR	RAINGAGE-9
HG-NABU-02YR	ALL	Short	0.014000	1.000000	2.000000	0.000000	0.000000	0.000000
HG-NABU-02YR	ALL	Medium	0.000000	0.000000	0.000000	0.000000	0.000000	0.000000
HG-NABU-02YR	ALL	Long	0.000000	0.000000	0.000000	0.000000	0.000000	0.000000
; 
HG-NABU-05YR	RAINGAGE-9
HG-NABU-05YR	ALL	Short	0.016000	1.000000	2.000000	0.000000	0.000000	0.000000
HG-NABU-05YR	ALL	Medium	0.000000	0.000000	0.000000	0.000000	0.000000	0.000000
HG-NABU-05YR	ALL	Long	0.000000	0.000000	0.000000	0.000000	0.000000	0.000000
; 
HG-NABU-10YR	RAINGAGE-9
HG-NABU-10YR	ALL	Short	0.018000	1.000000	2.000000	0.000000	0.000000	0.000000
HG-NABU-10YR	ALL	Medium	0.000000	0.000000	0.000000	0.000000	0.000000	0.000000
HG-NABU-10YR	ALL	Long	0.000000	0.000000	0.000000	0.000000	0.000000	0.000000
; 
HG-NE-01YR	RAINGAGE-9
HG-NE-01YR	ALL	Short	0.030000	1.000000	2.000000	0.000000	0.000000	0.000000
HG-NE-01YR	ALL	Medium	0.000000	0.000000	0.000000	0.000000	0.000000	0.000000
HG-NE-01YR	ALL	Long	0.000000	0.000000	0.000000	0.000000	0.000000	0.000000
; 
HG-NE-02YR	RAINGAGE-9
HG-NE-02YR	ALL	Short	0.034000	1.000000	2.000000	0.000000	0.000000	0.000000
HG-NE-02YR	ALL	Medium	0.000000	0.000000	0.000000	0.000000	0.000000	0.000000
HG-NE-02YR	ALL	Long	0.000000	0.000000	0.000000	0.000000	0.000000	0.000000
; 
HG-NE-05YR	RAINGAGE-9
HG-NE-05YR	ALL	Short	0.041000	1.000000	2.000000	0.000000	0.000000	0.000000
HG-NE-05YR	ALL	Medium	0.000000	0.000000	0.000000	0.000000	0.000000	0.000000
HG-NE-05YR	ALL	Long	0.000000	0.000000	0.000000	0.000000	0.000000	0.000000
; 
HG-NE-10YR	RAINGAGE-9
HG-NE-10YR	ALL	Short	0.048000	1.000000	2.000000	0.000000	0.000000	0.000000
HG-NE-10YR	ALL	Medium	0.000000	0.000000	0.000000	0.000000	0.000000	0.000000
HG-NE-10YR	ALL	Long	0.000000	0.000000	0.000000	0.000000	0.000000	0.000000
; 
HG-NE-6MNTH	RAINGAGE-9
HG-NE-6MNTH	ALL	Short	0.026000	1.000000	2.000000	0.000000	0.000000	0.000000
HG-NE-6MNTH	ALL	Medium	0.000000	0.000000	0.000000	0.000000	0.000000	0.000000
HG-NE-6MNTH	ALL	Long	0.000000	0.000000	0.000000	0.000000	0.000000	0.000000
; 
HG-NELS-01YR	RAINGAGE-9
HG-NELS-01YR	ALL	Short	0.100000	1.000000	2.000000	0.000000	0.000000	0.000000
HG-NELS-01YR	ALL	Medium	0.000000	0.000000	0.000000	0.000000	0.000000	0.000000
HG-NELS-01YR	ALL	Long	0.000000	0.000000	0.000000	0.000000	0.000000	0.000000
; 
HG-NELS-02YR	RAINGAGE-9