[OPTIONS]
;Option and Files Scenario Set: OPT-1, PWWF
FLOW_UNITS	GPM
INFILTRATION	HORTON
FLOW_ROUTING	DYNWAVE
ALLOW_PONDING	NO
DRY_DAYS	5.000000
SKIP_STEADY_STATE 	NO
IGNORE_RAINFALL	NO
IGNORE_SNOWMELT	NO
IGNORE_GROUNDWATER	NO
IGNORE_QUALITY	NO
FORCE_MAIN_EQUATION	H-W
LINK_OFFSETS	DEPTH
MIN_SLOPE	0.000000
START_DATE	10/12/2009
START_TIME	00:00
END_DATE	10/16/2009
END_TIME	00:00
REPORT_START_DATE	10/13/2009
REPORT_START_TIME	00:00
SWEEP_START	01/01
SWEEP_END	12/31
WET_STEP	01:00:00
DRY_STEP	01:00:00
ROUTING_STEP	30
REPORT_STEP	00:10:00
INERTIAL_DAMPING	NONE
VARIABLE_STEP	0.750000
MINIMUM_STEP	0.5
LENGTHENING_STEP	30
MIN_SURFAREA	0.000000
NORMAL_FLOW_LIMITED	BOTH

[FILES]

[RAINGAGES]
; RG1
PWWF_RG	INTENSITY	1.000000	1.000000	TIMESERIES	6-HOUR		

[HYDROGRAPHS]
; 
HYDROGRH-1	PWWF_RG
HYDROGRH-1	ALL	Short	0.120000	1.000000	2.000000	0.100000	0.100000	0.500000
HYDROGRH-1	ALL	Medium	0.050000	3.000000	2.000000	0.100000	0.100000	0.500000
HYDROGRH-1	ALL	Long	0.050000	8.000000	2.000000	0.100000	0.100000	0.500000

[TEMPERATURE]

[ADJUSTMENTS]

[SUBCATCHMENTS]

[SUBAREAS]

[INFILTRATION]

[AQUIFERS]

[GROUNDWATER]

[GWF]

[SNOWPACKS]

[JUNCTIONS]
; New Manhole
10	349.580000	4.000000	0.000000	1000.000000	0.000000
100	211.690000	7.610000	0.000000	0.000000	0.000000
1000	227.420000	6.550000	0.000000	0.000000	0.000000
1002	211.540000	7.360000	0.000000	0.000000	0.000000
1004	212.040000	7.360000	0.000000	0.000000	0.000000
1006	213.030000	7.270000	0.000000	0.000000	0.000000
1008	213.610000	7.990000	0.000000	0.000000	0.000000
1010	214.590000	9.610000	0.000000	0.000000	0.000000
102	210.780000	7.820000	0.000000	0.000000	0.000000
1037	200.800000	7.300000	0.000000	0.000000	0.000000
1038	203.230000	6.170000	0.000000	0.000000	0.000000
1039	209.830000	11.070000	0.000000	0.000000	0.000000
104	209.720000	8.080000	0.000000	0.000000	0.000000
1043	189.850000	13.650000	0.000000	0.000000	0.000000
1044	187.210000	15.190000	0.000000	0.000000	0.000000
1047	184.580000	14.820000	0.000000	0.000000	0.000000
1049	180.460000	20.140000	0.000000	0.000000	0.000000
1051	179.960000	21.040000	0.000000	0.000000	0.000000
1053	178.170000	22.930000	0.000000	0.000000	0.000000
1055	216.340000	6.000000	0.000000	0.000000	0.000000
106	208.600000	8.300000	0.000000	0.000000	0.000000
108	203.850000	12.450000	0.000000	0.000000	0.000000
11	188.860000	9.940000	0.000000	0.000000	0.000000
1103	168.160000	16.670000	0.000000	0.000000	0.000000
1107	170.110000	6.860000	0.000000	0.000000	0.000000
111	224.300000	7.100000	0.000000	0.000000	0.000000
1110	175.380000	5.220000	0.000000	0.000000	0.000000
1112	174.580000	5.420000	0.000000	0.000000	0.000000
1114	173.920000	5.780000	0.000000	0.000000	0.000000
1116	173.890000	5.310000	0.000000	0.000000	0.000000
1118	173.270000	5.630000	0.000000	0.000000	0.000000
1120	172.420000	5.580000	0.000000	0.000000	0.000000
1122	186.350000	11.150000	0.000000	0.000000	0.000000
1123	180.000000	17.000000	0.000000	0.000000	0.000000
1129	190.230000	6.670000	0.000000	0.000000	0.000000
1131	161.350000	15.050000	0.000000	0.000000	0.000000
1133	160.500000	14.700000	0.000000	0.000000	0.000000
1135	160.190000	14.510000	0.000000	0.000000	0.000000
1137	159.900000	14.300000	0.000000	0.000000	0.000000
1139	159.610000	13.090000	0.000000	0.000000	0.000000
114	220.700000	6.700000	0.000000	0.000000	0.000000
1141	159.470000	12.530000	0.000000	0.000000	0.000000
1143	158.570000	12.430000	0.000000	0.000000	0.000000
1145	157.670000	12.030000	0.000000	0.000000	0.000000
1147	157.090000	11.710000	0.000000	0.000000	0.000000
1149	155.780000	14.650000	0.000000	0.000000	0.000000
1151	167.280000	6.700000	0.000000	0.000000	0.000000
1158	168.150000	6.700000	0.000000	0.000000	0.000000
116	213.760000	10.640000	0.000000	0.000000	0.000000
1160	169.020000	6.680000	0.000000	0.000000	0.000000
1162	169.980000	6.100000	0.000000	0.000000	0.000000
1164	170.940000	6.560000	0.000000	0.000000	0.000000
1166	163.900000	8.400000	0.000000	0.000000	0.000000
1168	164.400000	8.600000	0.000000	0.000000	0.000000
1171	160.460000	11.160000	0.000000	0.000000	0.000000
1173	159.540000	11.540000	0.000000	0.000000	0.000000
1175	158.650000	11.910000	0.000000	0.000000	0.000000
1177	157.760000	12.280000	0.000000	0.000000	0.000000
1179	156.910000	12.630000	0.000000	0.000000	0.000000
118	212.000000	7.400000	0.000000	0.000000	0.000000
1182	155.620000	16.260000	0.000000	0.000000	0.000000
1187	167.230000	9.670000	0.000000	0.000000	0.000000
1189	215.310000	4.690000	0.000000	0.000000	0.000000
1191	215.440000	5.360000	0.000000	0.000000	0.000000
1193	215.980000	8.220000	0.000000	0.000000	0.000000
1195	216.190000	8.310000	0.000000	0.000000	0.000000
1197	216.430000	9.870000	0.000000	0.000000	0.000000
1199	216.750000	10.050000	0.000000	0.000000	0.000000
; New Manhole
12	312.130000	4.000000	0.000000	1000.000000	0.000000
120	210.700000	7.500000	0.000000	0.000000	0.000000
1201	217.080000	10.320000	0.000000	0.000000	0.000000
1203	217.410000	10.590000	0.000000	0.000000	0.000000
1205	229.060000	7.440000	0.000000	0.000000	0.000000
1206	231.060000	8.440000	0.000000	0.000000	0.000000
1210	187.640000	8.860000	0.000000	0.000000	0.000000
1211	177.280000	6.720000	0.000000	0.000000	0.000000
1212	175.560000	5.940000	0.000000	0.000000	0.000000
1213	179.970000	11.050000	0.000000	0.000000	0.000000
1214	196.900000	8.800000	0.000000	0.000000	0.000000
1216	174.170000	5.630000	0.000000	0.000000	0.000000
1217	198.030000	8.670000	0.000000	0.000000	0.000000
1218	185.800000	7.500000	0.000000	0.000000	0.000000
1219	182.700000	7.700000	0.000000	0.000000	0.000000
122	209.720000	7.780000	0.000000	0.000000	0.000000
1223	199.300000	9.100000	0.000000	0.000000	0.000000
1226	198.600000	8.700000	0.000000	0.000000	0.000000
1231	190.720000	11.180000	0.000000	0.000000	0.000000
1233	190.100000	10.300000	0.000000	0.000000	0.000000
1235	189.480000	10.120000	0.000000	0.000000	0.000000
1238	187.030000	8.770000	0.000000	0.000000	0.000000
124	208.920000	8.480000	0.000000	0.000000	0.000000
1244	175.980000	6.220000	0.000000	0.000000	0.000000
1246	176.710000	6.590000	0.000000	0.000000	0.000000
125	202.350000	15.150000	0.000000	0.000000	0.000000
1252	163.530000	10.570000	0.000000	0.000000	0.000000
1255	165.910000	10.890000	0.000000	0.000000	0.000000
1257	216.510000	10.390000	0.000000	0.000000	0.000000
1258	212.640000	8.380000	0.000000	0.000000	0.000000
1259	209.520000	8.280000	0.000000	0.000000	0.000000
1260	208.310000	8.440000	0.000000	0.000000	0.000000
1261	191.200000	13.400000	0.000000	0.000000	0.000000
1266	187.860000	4.650000	0.000000	0.000000	0.000000
1267	197.300000	3.100000	0.000000	0.000000	0.000000
1268	188.990000	10.290000	0.000000	0.000000	0.000000
127	202.550000	14.450000	0.000000	0.000000	0.000000
1270	189.500000	3.100000	0.000000	0.000000	0.000000
1272	189.280000	3.100000	0.000000	0.000000	0.000000
1274	188.860000	3.100000	0.000000	0.000000	0.000000
1276	187.630000	3.100000	0.000000	0.000000	0.000000
1278	186.920000	4.240000	0.000000	0.000000	0.000000
1280	186.130000	4.430000	0.000000	0.000000	0.000000
1282	185.340000	4.720000	0.000000	0.000000	0.000000
1284	184.550000	4.710000	0.000000	0.000000	0.000000
1287	197.900000	3.300000	0.000000	0.000000	0.000000
1289	198.800000	3.700000	0.000000	0.000000	0.000000
129	203.140000	12.860000	0.000000	0.000000	0.000000
1290	171.210000	4.790000	0.000000	0.000000	0.000000
1292	173.640000	4.310000	0.000000	0.000000	0.000000
1294	173.040000	4.510000	0.000000	0.000000	0.000000
1296	172.430000	4.720000	0.000000	0.000000	0.000000
1298	171.820000	4.980000	0.000000	0.000000	0.000000
13	188.250000	9.950000	0.000000	0.000000	0.000000
1300	186.000000	4.860000	0.000000	0.000000	0.000000
1301	167.020000	8.880000	0.000000	0.000000	0.000000
1302	185.900000	5.100000	0.000000	0.000000	0.000000
1304	186.440000	6.060000	0.000000	0.000000	0.000000
1308	192.820000	7.780000	0.000000	0.000000	0.000000
1310	193.000000	8.300000	0.000000	0.000000	0.000000
1311	192.170000	12.030000	0.000000	0.000000	0.000000
1312	186.290000	7.110000	0.000000	0.000000	0.000000
1313	188.820000	4.980000	0.000000	0.000000	0.000000
1315	185.790000	7.010000	0.000000	0.000000	0.000000
1319	190.960000	11.240000	0.000000	0.000000	0.000000
1321	197.150000	7.150000	0.000000	0.000000	0.000000
1322	191.880000	9.920000	0.000000	0.000000	0.000000
1325	192.180000	9.420000	0.000000	0.000000	0.000000
1327	192.470000	9.530000	0.000000	0.000000	0.000000
1329	193.100000	9.500000	0.000000	0.000000	0.000000
1331	192.350000	9.050000	0.000000	0.000000	0.000000
1333	192.470000	9.030000	0.000000	0.000000	0.000000
1335	194.570000	9.430000	0.000000	0.000000	0.000000
1337	195.350000	10.150000	0.000000	0.000000	0.000000
1339	196.500000	9.800000	0.000000	0.000000	0.000000
1340	206.810000	4.790000	0.000000	0.000000	0.000000
1341	208.820000	6.180000	0.000000	0.000000	0.000000
1344	210.090000	6.110000	0.000000	0.000000	0.000000
1346	209.780000	6.220000	0.000000	0.000000	0.000000
1348	209.240000	4.160000	0.000000	0.000000	0.000000
135	222.270000	8.930000	0.000000	0.000000	0.000000
1351	208.270000	9.330000	0.000000	0.000000	0.000000
1353	207.940000	9.460000	0.000000	0.000000	0.000000
1355	197.120000	14.080000	0.000000	0.000000	0.000000
1358	209.160000	10.640000	0.000000	0.000000	0.000000
1360	210.030000	10.270000	0.000000	0.000000	0.000000
1362	210.720000	10.280000	0.000000	0.000000	0.000000
1364	211.410000	8.890000	0.000000	0.000000	0.000000
1366	212.660000	8.540000	0.000000	0.000000	0.000000
1367	213.980000	9.320000	0.000000	0.000000	0.000000
1369	214.730000	9.770000	0.000000	0.000000	0.000000
137	221.650000	8.350000	0.000000	0.000000	0.000000
1372	215.690000	10.510000	0.000000	0.000000	0.000000
1374	216.650000	10.450000	0.000000	0.000000	0.000000
1376	216.910000	9.790000	0.000000	0.000000	0.000000
1378	217.300000	10.200000	0.000000	0.000000	0.000000
1380	217.950000	10.650000	0.000000	0.000000	0.000000
1382	218.600000	11.000000	0.000000	0.000000	0.000000
1384	218.930000	11.170000	0.000000	0.000000	0.000000
1385	177.880000	7.220000	0.000000	0.000000	0.000000
1387	178.590000	7.710000	0.000000	0.000000	0.000000
1389	179.800000	8.900000	0.000000	0.000000	0.000000
139	220.760000	6.440000	0.000000	0.000000	0.000000
1390	180.500000	8.900000	0.000000	0.000000	0.000000
1392	199.800000	8.900000	0.000000	0.000000	0.000000
1397	192.790000	16.110000	0.000000	0.000000	0.000000
1398	231.000000	11.500000	0.000000	0.000000	0.000000
14	186.410000	8.390000	0.000000	0.000000	0.000000
1401	162.170000	15.030000	0.000000	0.000000	0.000000
1403	162.900000	16.200000	0.000000	0.000000	0.000000
1405	163.600000	15.800000	0.000000	0.000000	0.000000
141	211.860000	12.240000	0.000000	0.000000	0.000000
142	212.120000	12.380000	0.000000	0.000000	0.000000
1426	164.430000	15.870000	0.000000	0.000000	0.000000
1427	167.850000	17.250000	0.000000	0.000000	0.000000
1429	167.050000	17.650000	0.000000	0.000000	0.000000
1430	166.180000	16.220000	0.000000	0.000000	0.000000
1431	165.320000	15.780000	0.000000	0.000000	0.000000
1432	172.810000	19.590000	0.000000	0.000000	0.000000
1433	170.430000	18.570000	0.000000	0.000000	0.000000
1434	169.670000	15.930000	0.000000	0.000000	0.000000
1435	171.190000	18.610000	0.000000	0.000000	0.000000
1436	168.770000	15.530000	0.000000	0.000000	0.000000
1438	171.940000	19.360000	0.000000	0.000000	0.000000
144	212.430000	12.500000	0.000000	0.000000	0.000000
1440	174.480000	18.820000	0.000000	0.000000	0.000000
1441	173.700000	17.800000	0.000000	0.000000	0.000000
1442	175.240000	24.260000	0.000000	0.000000	0.000000
1443	175.980000	22.220000	0.000000	0.000000	0.000000
1444	176.580000	23.920000	0.000000	0.000000	0.000000
1446	177.370000	24.130000	0.000000	0.000000	0.000000
1447	191.450000	9.200000	0.000000	0.000000	0.000000
1448	215.700000	8.170000	0.000000	0.000000	0.000000
1450	213.830000	8.170000	0.000000	0.000000	0.000000
1452	213.010000	8.890000	0.000000	0.000000	0.000000
1454	212.580000	5.420000	0.000000	0.000000	0.000000
1457	193.880000	9.200000	0.000000	0.000000	0.000000
1459	196.310000	9.200000	0.000000	0.000000	0.000000
1461	201.290000	14.570000	0.000000	0.000000	0.000000
1463	202.800000	11.910000	0.000000	0.000000	0.000000
1468	180.400000	4.250000	0.000000	0.000000	0.000000
1469	187.850000	11.290000	0.000000	0.000000	0.000000
1470	161.470000	9.230000	0.000000	0.000000	0.000000
1471	179.400000	8.600000	0.000000	0.000000	0.000000
1474	175.900000	11.600000	0.000000	0.000000	0.000000
1476	174.850000	10.850000	0.000000	0.000000	0.000000
148	213.150000	9.350000	0.000000	0.000000	0.000000
1480	173.820000	10.980000	0.000000	0.000000	0.000000
1484	172.850000	10.750000	0.000000	0.000000	0.000000
1488	171.470000	10.930000	0.000000	0.000000	0.000000
1490	170.980000	10.020000	0.000000	0.000000	0.000000
1492	169.450000	10.850000	0.000000	0.000000	0.000000
1496	168.010000	11.110000	0.000000	0.000000	0.000000
1498	171.880000	6.480000	0.000000	0.000000	0.000000
150	213.710000	8.590000	0.000000	0.000000	0.000000
1500	170.390000	7.070000	0.000000	0.000000	0.000000
1502	168.880000	7.660000	0.000000	0.000000	0.000000
1504	167.610000	8.160000	0.000000	0.000000	0.000000
1506	165.920000	8.830000	0.000000	0.000000	0.000000
1508	164.340000	9.450000	0.000000	0.000000	0.000000
1510	162.680000	9.250000	0.000000	0.000000	0.000000
1512	181.000000	9.700000	0.000000	0.000000	0.000000
1514	176.360000	13.440000	0.000000	0.000000	0.000000
1516	176.850000	13.550000	0.000000	0.000000	0.000000
152	206.700000	8.900000	0.000000	0.000000	0.000000
1520	177.790000	12.510000	0.000000	0.000000	0.000000
1524	179.730000	11.270000	0.000000	0.000000	0.000000
1528	167.790000	10.710000	0.000000	0.000000	0.000000
1529	162.680000	9.250000	0.000000	0.000000	0.000000
153	206.070000	8.930000	0.000000	0.000000	0.000000
1530	172.820000	5.680000	0.000000	0.000000	0.000000
1535	160.180000	10.620000	0.000000	0.000000	0.000000
1537	158.890000	11.610000	0.000000	0.000000	0.000000
1539	158.040000	12.660000	0.000000	0.000000	0.000000
1541	156.650000	15.450000	0.000000	0.000000	0.000000
1543	155.460000	17.950000	0.000000	0.000000	0.000000
155	204.990000	9.310000	0.000000	0.000000	0.000000
157	204.320000	8.980000	0.000000	0.000000	0.000000
159	203.630000	8.370000	0.000000	0.000000	0.000000
1596	244.130000	11.670000	0.000000	0.000000	0.000000
1597	235.400000	10.000000	0.000000	0.000000	0.000000
1599	230.840000	9.310000	0.000000	0.000000	0.000000
16	218.530000	8.970000	0.000000	0.000000	0.000000
1601	217.000000	17.350000	0.000000	0.000000	0.000000
1603	215.870000	16.280000	0.000000	0.000000	0.000000
1605	213.380000	9.830000	0.000000	0.000000	0.000000
1607	207.920000	9.500000	0.000000	0.000000	0.000000
161	203.180000	8.020000	0.000000	0.000000	0.000000
163	202.630000	8.170000	0.000000	0.000000	0.000000
165	202.030000	8.670000	0.000000	0.000000	0.000000
167	201.620000	7.480000	0.000000	0.000000	0.000000
169	200.860000	6.940000	0.000000	0.000000	0.000000
17	217.810000	9.190000	0.000000	0.000000	0.000000
171	200.100000	7.500000	0.000000	0.000000	0.000000
173	199.340000	8.260000	0.000000	0.000000	0.000000
175	198.580000	8.720000	0.000000	0.000000	0.000000
177	197.820000	8.780000	0.000000	0.000000	0.000000
179	196.670000	9.130000	0.000000	0.000000	0.000000
; New Manhole
18	346.750000	4.000000	0.000000	1000.000000	0.000000
181	195.520000	9.680000	0.000000	0.000000	0.000000
183	194.370000	11.630000	0.000000	0.000000	0.000000
185	193.220000	12.080000	0.000000	0.000000	0.000000
187	189.430000	11.870000	0.000000	0.000000	0.000000
19	215.450000	11.350000	0.000000	0.000000	0.000000
190	192.570000	10.720000	0.000000	0.000000	0.000000
191	191.940000	10.560000	0.000000	0.000000	0.000000
193	191.040000	9.960000	0.000000	0.000000	0.000000
195	190.140000	9.360000	0.000000	0.000000	0.000000
197	189.230000	8.770000	0.000000	0.000000	0.000000
199	188.330000	10.970000	0.000000	0.000000	0.000000
2002	305.650000	11.150000	0.000000	0.000000	0.000000
2003	306.360000	10.840000	0.000000	0.000000	0.000000
2005	307.070000	11.230000	0.000000	0.000000	0.000000
2007	311.070000	17.530000	0.000000	0.000000	0.000000
2008	311.560000	18.040000	0.000000	0.000000	0.000000
201	187.400000	10.400000	0.000000	0.000000	0.000000
2010	312.920000	16.880000	0.000000	0.000000	0.000000
2012	313.980000	6.670000	0.000000	0.000000	0.000000
2013	317.440000	6.670000	0.000000	0.000000	0.000000
2015	320.730000	6.670000	0.000000	0.000000	0.000000
2017	324.250000	6.670000	0.000000	0.000000	0.000000
2019	327.550000	6.670000	0.000000	0.000000	0.000000
2021	328.930000	7.570000	0.000000	0.000000	0.000000
2023	329.710000	7.570000	0.000000	0.000000	0.000000
2025	332.100000	7.570000	0.000000	0.000000	0.000000
2028	332.160000	7.820000	0.000000	0.000000	0.000000
203	176.780000	23.990000	0.000000	0.000000	0.000000
2030	332.430000	7.720000	0.000000	0.000000	0.000000
2032	332.870000	8.020000	0.000000	0.000000	0.000000
2034	333.560000	7.740000	0.000000	0.000000	0.000000
2035	333.610000	7.390000	0.000000	0.000000	0.000000
2037	334.130000	5.850000	0.000000	0.000000	0.000000
2038	334.630000	9.070000	0.000000	0.000000	0.000000
2040	335.260000	9.090000	0.000000	0.000000	0.000000
2042	335.780000	9.080000	0.000000	0.000000	0.000000
2046	311.060000	17.530000	0.000000	0.000000	0.000000
2047	311.180000	17.190000	0.000000	0.000000	0.000000
2049	311.510000	17.190000	0.000000	0.000000	0.000000
205	178.460000	23.140000	0.000000	0.000000	0.000000
2051	311.590000	16.710000	0.000000	0.000000	0.000000
2053	311.760000	15.740000	0.000000	0.000000	0.000000
2055	311.930000	15.370000	0.000000	0.000000	0.000000
2057	312.700000	13.600000	0.000000	0.000000	0.000000
2059	313.470000	11.760000	0.000000	0.000000	0.000000
2062	330.180000	12.420000	0.000000	0.000000	0.000000
2064	330.540000	12.560000	0.000000	0.000000	0.000000
2066	332.120000	14.830000	0.000000	0.000000	0.000000
2067	336.860000	9.890000	0.000000	0.000000	0.000000
2069	386.500000	10.700000	0.000000	0.000000	0.000000
207	188.470000	11.930000	0.000000	0.000000	0.000000
2070	403.760000	10.840000	0.000000	0.000000	0.000000
2072	427.800000	5.800000	0.000000	0.000000	0.000000
2074	427.870000	6.030000	0.000000	0.000000	0.000000
2075	447.240000	6.760000	0.000000	0.000000	0.000000
208	178.780000	23.220000	0.000000	0.000000	0.000000
2091	328.090000	12.410000	0.000000	0.000000	0.000000
2092	329.020000	13.880000	0.000000	0.000000	0.000000
2094	329.730000	14.070000	0.000000	0.000000	0.000000
2096	329.780000	14.290000	0.000000	0.000000	0.000000
2098	295.200000	11.300000	0.000000	0.000000	0.000000
2099	296.190000	10.260000	0.000000	0.000000	0.000000
2101	297.030000	10.260000	0.000000	0.000000	0.000000
2102	297.590000	10.260000	0.000000	0.000000	0.000000
2104	298.180000	10.260000	0.000000	0.000000	0.000000
2106	298.790000	10.260000	0.000000	0.000000	0.000000
2108	299.490000	10.260000	0.000000	0.000000	0.000000
2110	300.230000	10.260000	0.000000	0.000000	0.000000
2111	300.820000	10.260000	0.000000	0.000000	0.000000
2113	301.000000	10.260000	0.000000	0.000000	0.000000
2115	301.500000	10.260000	0.000000	0.000000	0.000000
2117	302.000000	10.770000	0.000000	0.000000	0.000000
2119	302.400000	10.770000	0.000000	0.000000	0.000000
2121	302.900000	10.770000	0.000000	0.000000	0.000000
2123	306.530000	10.670000	0.000000	0.000000	0.000000
2125	307.260000	11.140000	0.000000	0.000000	0.000000
2127	307.940000	10.860000	0.000000	0.000000	0.000000
2129	308.640000	11.360000	0.000000	0.000000	0.000000
2130	309.330000	12.070000	0.000000	0.000000	0.000000
2132	310.200000	9.700000	0.000000	0.000000	0.000000
2134	310.540000	9.760000	0.000000	0.000000	0.000000
2136	314.970000	12.130000	0.000000	0.000000	0.000000
2137	324.510000	2.990000	0.000000	0.000000	0.000000
2139	325.320000	2.280000	0.000000	0.000000	0.000000
2143	327.120000	6.280000	0.000000	0.000000	0.000000
2145	327.350000	5.920000	0.000000	0.000000	0.000000
2147	335.910000	13.990000	0.000000	0.000000	0.000000
2148	336.990000	10.600000	0.000000	0.000000	0.000000
2150	338.070000	10.600000	0.000000	0.000000	0.000000
2152	339.270000	10.600000	0.000000	0.000000	0.000000
2154	340.340000	10.420000	0.000000	0.000000	0.000000
2156	341.190000	10.420000	0.000000	0.000000	0.000000
2158	342.230000	10.420000	0.000000	0.000000	0.000000
2160	344.480000	10.320000	0.000000	0.000000	0.000000
2162	345.080000	11.820000	0.000000	0.000000	0.000000
2164	345.560000	10.940000	0.000000	0.000000	0.000000
2166	346.640000	11.560000	0.000000	0.000000	0.000000
2168	347.780000	11.720000	0.000000	0.000000	0.000000
2170	348.780000	12.220000	0.000000	0.000000	0.000000
2172	349.690000	12.810000	0.000000	0.000000	0.000000
2191	354.940000	9.560000	0.000000	0.000000	0.000000
2192	355.040000	10.130000	0.000000	0.000000	0.000000
2194	355.620000	9.880000	0.000000	0.000000	0.000000
2196	358.100000	8.800000	0.000000	0.000000	0.000000
2198	360.930000	9.570000	0.000000	0.000000	0.000000
2199	362.040000	9.660000	0.000000	0.000000	0.000000
2201	362.290000	10.210000	0.000000	0.000000	0.000000
2203	362.520000	10.880000	0.000000	0.000000	0.000000
2205	363.000000	12.100000	0.000000	0.000000	0.000000
2207	363.500000	13.000000	0.000000	0.000000	0.000000
2209	365.500000	12.000000	0.000000	0.000000	0.000000
2211	366.910000	11.090000	0.000000	0.000000	0.000000
2213	367.290000	10.800000	0.000000	0.000000	0.000000
2215	368.300000	10.800000	0.000000	0.000000	0.000000
2217	369.610000	9.390000	0.000000	0.000000	0.000000
2219	370.690000	7.410000	0.000000	0.000000	0.000000
222	185.710000	11.290000	0.000000	0.000000	0.000000
2221	371.260000	7.240000	0.000000	0.000000	0.000000
2223	371.850000	7.050000	0.000000	0.000000	0.000000
2225	372.550000	7.150000	0.000000	0.000000	0.000000
2227	373.400000	8.400000	0.000000	0.000000	0.000000
2229	374.200000	8.600000	0.000000	0.000000	0.000000
2231	374.700000	9.500000	0.000000	0.000000	0.000000
2233	374.910000	9.490000	0.000000	0.000000	0.000000
2235	375.420000	10.080000	0.000000	0.000000	0.000000
2237	375.960000	10.140000	0.000000	0.000000	0.000000
2239	376.500000	8.400000	0.000000	0.000000	0.000000
2241	366.720000	12.280000	0.000000	0.000000	0.000000
2243	367.510000	11.690000	0.000000	0.000000	0.000000
2245	368.270000	11.730000	0.000000	0.000000	0.000000
2247	368.590000	10.910000	0.000000	0.000000	0.000000
2249	369.190000	10.810000	0.000000	0.000000	0.000000
225	202.180000	7.620000	0.000000	0.000000	0.000000
2251	369.420000	10.880000	0.000000	0.000000	0.000000
2253	340.400000	8.900000	0.000000	0.000000	0.000000
2254	339.940000	9.560000	0.000000	0.000000	0.000000
2256	339.430000	11.770000	0.000000	0.000000	0.000000
2257	339.050000	11.770000	0.000000	0.000000	0.000000
2259	337.820000	15.870000	0.000000	0.000000	0.000000
226	201.280000	7.920000	0.000000	0.000000	0.000000
2260	337.740000	16.360000	0.000000	0.000000	0.000000
2262	353.100000	7.200000	0.000000	0.000000	0.000000
2263	354.720000	7.200000	0.000000	0.000000	0.000000
2267	356.700000	10.700000	0.000000	0.000000	0.000000
2268	368.130000	6.470000	0.000000	0.000000	0.000000
2270	350.720000	10.280000	0.000000	0.000000	0.000000
2271	350.480000	10.420000	0.000000	0.000000	0.000000
2273	349.710000	12.290000	0.000000	0.000000	0.000000
2275	349.360000	10.140000	0.000000	0.000000	0.000000
2277	347.670000	11.030000	0.000000	0.000000	0.000000
2278	349.720000	9.180000	0.000000	0.000000	0.000000
228	200.520000	8.180000	0.000000	0.000000	0.000000
2280	351.920000	8.080000	0.000000	0.000000	0.000000
2282	346.080000	11.720000	0.000000	0.000000	0.000000
2285	348.210000	10.090000	0.000000	0.000000	0.000000
2287	350.000000	9.100000	0.000000	0.000000	0.000000
2289	350.300000	8.900000	0.000000	0.000000	0.000000
2291	350.580000	9.770000	0.000000	0.000000	0.000000
2296	346.550000	7.570000	0.000000	0.000000	0.000000
2297	345.560000	7.570000	0.000000	0.000000	0.000000
2299	344.580000	7.420000	0.000000	0.000000	0.000000
23	214.820000	11.180000	0.000000	0.000000	0.000000
230	199.830000	7.870000	0.000000	0.000000	0.000000
2301	344.020000	7.420000	0.000000	0.000000	0.000000
2303	341.810000	5.900000	0.000000	0.000000	0.000000
2304	339.980000	7.220000	0.000000	0.000000	0.000000
2306	339.340000	7.220000	0.000000	0.000000	0.000000
2307	339.310000	7.220000	0.000000	0.000000	0.000000
2309	337.850000	7.220000	0.000000	0.000000	0.000000
2310	337.800000	7.220000	0.000000	0.000000	0.000000
2315	380.670000	9.830000	0.000000	0.000000	0.000000
2316	376.720000	7.680000	0.000000	0.000000	0.000000
2318	368.800000	9.000000	0.000000	0.000000	0.000000
232	197.900000	9.100000	0.000000	0.000000	0.000000
2320	363.660000	10.940000	0.000000	0.000000	0.000000
2322	359.200000	10.700000	0.000000	0.000000	0.000000
; FML 14
2324	356.100000	8.900000	0.000000	0.000000	0.000000
; FML 13
2326	342.390000	10.960000	0.000000	0.000000	0.000000
2327	337.710000	9.890000	0.000000	0.000000	0.000000
2329	328.550000	7.430000	0.000000	0.000000	0.000000
2330	327.800000	5.200000	0.000000	0.000000	0.000000
2332	327.670000	5.920000	0.000000	0.000000	0.000000
2335	318.820000	8.780000	0.000000	0.000000	0.000000
2336	318.190000	9.510000	0.000000	0.000000	0.000000
2338	317.130000	9.870000	0.000000	0.000000	0.000000
234	196.870000	9.630000	0.000000	0.000000	0.000000
2340	323.420000	15.780000	0.000000	0.000000	0.000000
2341	321.290000	11.270000	0.000000	0.000000	0.000000
2343	320.290000	10.910000	0.000000	0.000000	0.000000
2345	319.290000	11.210000	0.000000	0.000000	0.000000
2347	318.290000	10.710000	0.000000	0.000000	0.000000
2349	317.290000	10.910000	0.000000	0.000000	0.000000
2351	315.800000	11.400000	0.000000	0.000000	0.000000
2353	314.980000	11.400000	0.000000	0.000000	0.000000
2355	323.770000	4.230000	0.000000	0.000000	0.000000
2357	314.710000	12.130000	0.000000	0.000000	0.000000
236	196.810000	9.690000	0.000000	0.000000	0.000000
2361	314.090000	12.360000	0.000000	0.000000	0.000000
2362	316.430000	12.360000	0.000000	0.000000	0.000000
2364	313.130000	8.270000	0.000000	0.000000	0.000000
2365	312.380000	10.520000	0.000000	0.000000	0.000000
2367	311.930000	11.240000	0.000000	0.000000	0.000000
2369	311.390000	12.360000	0.000000	0.000000	0.000000
2370	310.970000	13.250000	0.000000	0.000000	0.000000
2372	310.320000	14.680000	0.000000	0.000000	0.000000
2374	311.640000	13.160000	0.000000	0.000000	0.000000
2375	309.780000	12.220000	0.000000	0.000000	0.000000
2377	303.950000	18.050000	0.000000	0.000000	0.000000
2379	300.150000	20.950000	0.000000	0.000000	0.000000
238	196.380000	10.120000	0.000000	0.000000	0.000000
2382	311.630000	8.770000	0.000000	0.000000	0.000000
2384	309.790000	8.610000	0.000000	0.000000	0.000000
2398	314.840000	8.860000	0.000000	0.000000	0.000000
240	195.580000	9.020000	0.000000	0.000000	0.000000
2400	314.160000	12.540000	0.000000	0.000000	0.000000
2402	313.220000	8.580000	0.000000	0.000000	0.000000
2404	312.460000	10.340000	0.000000	0.000000	0.000000
2406	311.490000	10.410000	0.000000	0.000000	0.000000
2409	323.230000	7.270000	0.000000	0.000000	0.000000
2410	322.350000	8.450000	0.000000	0.000000	0.000000
2412	322.350000	8.450000	0.000000	0.000000	0.000000
2413	321.460000	8.450000	0.000000	0.000000	0.000000
2415	321.490000	8.410000	0.000000	0.000000	0.000000
2417	321.330000	8.370000	0.000000	0.000000	0.000000
2419	320.520000	8.280000	0.000000	0.000000	0.000000
242	194.900000	8.900000	0.000000	0.000000	0.000000
2421	319.580000	8.120000	0.000000	0.000000	0.000000
2423	343.290000	5.780000	0.000000	0.000000	0.000000
2424	342.200000	8.200000	0.000000	0.000000	0.000000
2426	316.210000	11.090000	0.000000	0.000000	0.000000
2428	315.280000	11.120000	0.000000	0.000000	0.000000
2433	333.470000	7.740000	0.000000	0.000000	0.000000
2435	333.040000	8.020000	0.000000	0.000000	0.000000
246	194.220000	10.080000	0.000000	0.000000	0.000000
2466	286.000000	22.000000	0.000000	1000.000000	0.000000
2468	298.540000	7.160000	0.000000	0.000000	0.000000
2470	301.100000	9.600000	0.000000	0.000000	0.000000
2471	304.940000	11.260000	0.000000	0.000000	0.000000
2474	310.010000	15.990000	0.000000	0.000000	0.000000
2475	310.780000	17.220000	0.000000	0.000000	0.000000
2477	330.910000	7.570000	0.000000	0.000000	0.000000
2479	331.610000	7.570000	0.000000	0.000000	0.000000
248	197.700000	7.200000	0.000000	0.000000	0.000000
2482	336.900000	9.400000	0.000000	0.000000	0.000000
2484	336.480000	9.620000	0.000000	0.000000	0.000000
2489	394.700000	4.100000	0.000000	0.000000	0.000000
2490	391.780000	7.020000	0.000000	0.000000	0.000000
2492	390.870000	7.030000	0.000000	0.000000	0.000000
2494	387.930000	8.770000	0.000000	0.000000	0.000000
2496	386.770000	9.630000	0.000000	0.000000	0.000000
2498	385.180000	10.420000	0.000000	0.000000	0.000000
25	213.280000	11.720000	0.000000	0.000000	0.000000
250	197.840000	7.360000	0.000000	0.000000	0.000000
2502	383.240000	7.060000	0.000000	0.000000	0.000000
2504	377.460000	11.440000	0.000000	0.000000	0.000000
2508	373.550000	10.250000	0.000000	0.000000	0.000000
2510	372.570000	9.530000	0.000000	0.000000	0.000000
2512	371.800000	9.400000	0.000000	0.000000	0.000000
2519	308.250000	7.550000	0.000000	0.000000	0.000000
252	193.350000	9.850000	0.000000	0.000000	0.000000
2525	309.230000	12.770000	0.000000	0.000000	0.000000
2526	308.510000	11.790000	0.000000	0.000000	0.000000
2528	307.790000	9.810000	0.000000	0.000000	0.000000
2531	309.720000	16.680000	0.000000	0.000000	0.000000
2535	311.220000	10.780000	0.000000	0.000000	0.000000
2536	309.450000	10.550000	0.000000	0.000000	0.000000
2538	307.810000	13.230000	0.000000	0.000000	0.000000
254	191.480000	10.120000	0.000000	0.000000	0.000000
2540	307.500000	13.800000	0.000000	0.000000	0.000000
2545	314.010000	5.690000	0.000000	0.000000	0.000000
2547	314.960000	5.490000	0.000000	0.000000	0.000000
2549	315.960000	5.040000	0.000000	0.000000	0.000000
2551	316.810000	5.290000	0.000000	0.000000	0.000000
2554	317.480000	5.520000	0.000000	0.000000	0.000000
2556	316.870000	13.130000	0.000000	0.000000	0.000000
2557	318.680000	8.320000	0.000000	0.000000	0.000000
256	193.750000	9.250000	0.000000	0.000000	0.000000
2560	315.490000	12.510000	0.000000	0.000000	0.000000
2562	315.270000	12.680000	0.000000	0.000000	0.000000
2564	314.460000	12.540000	0.000000	0.000000	0.000000
2566	313.420000	14.180000	0.000000	0.000000	0.000000
2568	312.850000	14.520000	0.000000	0.000000	0.000000
2570	312.390000	13.810000	0.000000	0.000000	0.000000