[OPTIONS]
;Option and Files Scenario Set: BASE, Base Simulation Options
FLOW_UNITS	LPS
INFILTRATION	HORTON
FLOW_ROUTING	DYNWAVE
ALLOW_PONDING	NO
DRY_DAYS	5.000000
SKIP_STEADY_STATE 	NO
IGNORE_RAINFALL	NO
IGNORE_SNOWMELT	NO
IGNORE_GROUNDWATER	NO
IGNORE_QUALITY	NO
FORCE_MAIN_EQUATION	H-W
LINK_OFFSETS	DEPTH
MIN_SLOPE	0.000000
START_DATE	01/01/2002
START_TIME	00:00
END_DATE	01/03/2002
END_TIME	00:00
REPORT_START_DATE	01/02/2002
REPORT_START_TIME	00:00
SWEEP_START	01/01
SWEEP_END	12/31
WET_STEP	01:00:00
DRY_STEP	23:00:00
ROUTING_STEP	2
REPORT_STEP	00:00:10
INERTIAL_DAMPING	NONE
VARIABLE_STEP	0.750000
MINIMUM_STEP	0.5
LENGTHENING_STEP	10
MIN_SURFAREA	0.000000
NORMAL_FLOW_LIMITED	BOTH
MAX_TRIALS	8
HEAD_TOLERANCE	0.001000

[FILES]

[RAINGAGES]

[HYDROGRAPHS]

[TEMPERATURE]

[ADJUSTMENTS]

[SUBCATCHMENTS]

[SUBAREAS]

[INFILTRATION]

[AQUIFERS]

[GROUNDWATER]

[GWF]

[SNOWPACKS]

[JUNCTIONS]
BENOWA_N1	-0.700000	4.700000	0.000000	200.000000	10.000000
BENOWA_N2	-0.650000	10.000000	0.700000	200.000000	0.000000
BENOWA_N3	-0.646000	10.000000	0.700000	200.000000	0.000000
BENOWA_N4	-0.612000	10.000000	0.700000	200.000000	0.000000
BENOWA_N5	-0.558000	10.000000	0.700000	200.000000	0.000000
BENOWA_N6	-0.548000	10.000000	0.700000	200.000000	0.000000
; CO01070
GM-CO-TP	17.000000	0.000000	0.000000	200.000000	0.000000
; 768
RM-A01-01	4.000000	0.000000	0.000000	200.000000	0.000000
; 764
RM-A01-02	4.000000	0.000000	0.000000	200.000000	0.000000
; 471
RM-A01-03	4.000000	0.000000	0.000000	200.000000	0.000000
; 2226
RM-A01-04	1.200000	0.000000	0.000000	200.000000	0.000000
; 754
RM-A01-05	4.000000	0.000000	0.000000	200.000000	0.000000
; 746
RM-A01-06	0.040000	0.000000	0.000000	200.000000	0.000000
; 738
RM-A01-07	-0.430000	0.000000	0.000000	200.000000	0.000000
; 2230
RM-A01-08	0.640000	0.000000	0.000000	200.000000	0.000000
; 726
RM-A01-09	3.000000	0.000000	0.000000	200.000000	0.000000
; 724
RM-A01-10	3.000000	0.000000	0.000000	200.000000	0.000000
; 2232
RM-A01-11	0.520000	0.000000	0.000000	200.000000	0.000000
; 716
RM-A01-12	3.000000	0.000000	0.000000	200.000000	0.000000
; 708
RM-A01-13	3.000000	0.000000	0.000000	200.000000	0.000000
; 700
RM-A01-14	-0.420000	0.000000	0.000000	200.000000	0.000000
; 2240
RM-A01-15	-4.320000	0.000000	0.000000	200.000000	0.000000
; 2238
RM-A01-16	0.250000	0.000000	0.000000	200.000000	0.000000
; 698
RM-A01-17	2.000000	0.000000	0.000000	200.000000	0.000000
; 5818
RM-A01-18	1.000000	0.000000	0.000000	200.000000	0.000000
; 5820
RM-A01-20	0.000000	4.000000	0.000000	200.000000	0.000000
; 506
RM-A01-21	3.000000	0.000000	0.000000	200.000000	0.000000
; 500
RM-A01-22	3.000000	0.000000	0.000000	200.000000	0.000000
; 430
RM-A01-23	3.000000	0.000000	0.000000	200.000000	0.000000
; 424
RM-A01-24	3.000000	0.000000	0.000000	200.000000	0.000000
; 758
RM-A02-01	4.000000	0.000000	0.000000	200.000000	0.000000
; 756
RM-A02-02	4.000000	0.000000	0.000000	200.000000	0.000000
; 854
RM-A101-01	4.000000	0.000000	0.000000	200.000000	0.000000
; 852
RM-A101-02	4.000000	0.000000	0.000000	200.000000	0.000000
; 850
RM-A101-03	4.000000	0.000000	0.000000	200.000000	0.000000
; 848
RM-A101-04	4.000000	0.000000	0.000000	200.000000	0.000000
; 846
RM-A101-05	4.000000	0.000000	0.000000	200.000000	0.000000
; 844
RM-A101-06	4.000000	0.000000	0.000000	200.000000	0.000000
; 842
RM-A101-07	4.000000	0.000000	0.000000	200.000000	0.000000
; 840
RM-A101-08	4.000000	0.000000	0.000000	200.000000	0.000000
; 838
RM-A101-09	4.000000	0.000000	0.000000	200.000000	0.000000
; 836
RM-A101-10	4.000000	0.000000	0.000000	200.000000	0.000000
; 828
RM-A101-11	4.000000	0.000000	0.000000	200.000000	0.000000
; 826
RM-A101-12	4.000000	0.000000	0.000000	200.000000	0.000000
; 824
RM-A101-13	4.000000	0.000000	0.000000	200.000000	0.000000
; 822
RM-A101-14	4.000000	0.000000	0.000000	200.000000	0.000000
; 820
RM-A101-15	4.000000	0.000000	0.000000	200.000000	0.000000
; 818
RM-A101-16	4.000000	0.000000	0.000000	200.000000	0.000000
; 816
RM-A101-17	4.000000	0.000000	0.000000	200.000000	0.000000
; 814
RM-A101-18	3.000000	0.000000	0.000000	200.000000	0.000000
; 812
RM-A101-19	3.000000	0.000000	0.000000	200.000000	0.000000
; 810
RM-A101-20	3.000000	0.000000	0.000000	200.000000	0.000000
; 808
RM-A101-21	3.000000	0.000000	0.000000	200.000000	0.000000
; 800
RM-A101-22	3.000000	0.000000	0.000000	200.000000	0.000000
; 798
RM-A101-23	3.000000	0.000000	0.000000	200.000000	0.000000
; 796
RM-A101-24	3.000000	0.000000	0.000000	200.000000	0.000000
; 426
RM-A101-25	3.000000	0.000000	0.000000	200.000000	0.000000
; 8556
RM-A101-26	3.000000	0.000000	0.000000	200.000000	0.000000
RM-A101-98	4.000000	0.000000	0.000000	150.000000	0.000000
; 2262
RM-A102-01	4.000000	0.000000	0.000000	200.000000	0.000000
; 964
RM-A102-02	4.000000	0.000000	0.000000	200.000000	0.000000
; 962
RM-A102-03	4.000000	0.000000	0.000000	200.000000	0.000000
; 2244
RM-A102-04	3.800000	0.000000	0.000000	200.000000	0.000000
; 942
RM-A102-05	4.000000	0.000000	0.000000	200.000000	0.000000
; 944
RM-A102-06	4.000000	0.000000	0.000000	200.000000	0.000000
RM-A102-UP	4.000000	0.000000	0.000000	200.000000	0.000000
RM-A102-UP2	4.000000	0.000000	0.000000	200.000000	0.000000
; 862
RM-A12-01	4.000000	0.000000	0.000000	200.000000	0.000000
; 858
RM-A12-02	4.000000	0.000000	0.000000	200.000000	0.000000
; 5744
RM-A14-01	4.000000	0.000000	0.000000	200.000000	0.000000
; 5816
RM-A14-02	4.000000	0.000000	0.000000	200.000000	0.000000
; 740
RM-A18-01	4.000000	0.000000	0.000000	200.000000	0.000000
; 2228
RM-A18-02	0.930000	0.000000	0.000000	200.000000	0.000000
; 718
RM-A19-01	3.000000	0.000000	0.000000	200.000000	0.000000
; 874
RM-A22-01	4.000000	0.000000	0.000000	200.000000	0.000000
; 910
RM-A28-01	4.000000	0.000000	0.000000	200.000000	0.000000
; 908
RM-A28-02	4.000000	0.000000	0.000000	200.000000	0.000000
; 928
RM-A28-03	4.000000	0.000000	0.000000	200.000000	0.000000
; 926
RM-A28-04	4.000000	0.000000	0.000000	200.000000	0.000000
; 924
RM-A28-05	4.000000	0.000000	0.000000	200.000000	0.000000
; 922
RM-A28-06	4.000000	0.000000	0.000000	200.000000	0.000000
; 920
RM-A28-07	4.000000	0.000000	0.000000	200.000000	0.000000
; 918
RM-A28-08	4.000000	0.000000	0.000000	200.000000	0.000000
; 916
RM-A28-09	4.000000	0.000000	0.000000	200.000000	0.000000
; 782
RM-A28-10	4.000000	0.000000	0.000000	200.000000	0.000000
RM-A28-1000	2.187000	3.626000	0.000000	200.000000	0.000000
RM-A28-1001	11.967000	2.364000	0.000000	200.000000	0.000000
; 477
RM-A28-11	3.000000	0.000000	0.000000	200.000000	0.000000
; 479
RM-A28-12	12.000000	2.620000	0.000000	200.000000	0.000000
; 481
RM-A28-13	6.110000	3.328000	0.000000	200.000000	0.000000
; 483
RM-A28-14	8.100000	1.991000	0.000000	200.000000	0.000000
; 860
RM-A28-15	4.000000	0.000000	0.000000	200.000000	0.000000
; 856
RM-A28-16	0.000000	4.000000	0.000000	200.000000	5.000000
RM-A28_1003	11.822000	5.003000	0.000000	200.000000	0.000000
; 770
RM-A39-01	4.000000	0.000000	0.000000	200.000000	0.000000
; 772
RM-A39-02	4.000000	0.000000	0.000000	200.000000	0.000000
; 748
RM-A42-01	4.000000	0.000000	0.000000	200.000000	0.000000
; 932
RM-A78-01	4.000000	0.000000	0.000000	200.000000	0.000000
; 2224
RM-A78-02	5.900000	0.000000	0.000000	200.000000	0.000000
; 938
RM-A78-03	-0.850000	0.000000	0.000000	200.000000	0.000000
RM-A78-03A	-0.700000	0.000000	0.000000	200.000000	0.000000
; 940
RM-A78-04	-0.280000	0.000000	0.000000	200.000000	0.000000
; 2246
RM-A78-05	0.420000	0.000000	0.000000	200.000000	0.000000
; 2248
RM-A78-06	6.120000	0.000000	0.000000	200.000000	0.000000
; 766
RM-A78-07	4.000000	0.000000	0.000000	200.000000	0.000000
; 672
RM-D02-01	3.000000	0.000000	0.000000	200.000000	0.000000
; 2234
RM-D02-02	1.110000	0.000000	0.000000	200.000000	0.000000
; 470
RM-D06-01	3.000000	0.000000	0.000000	200.000000	0.000000
; 446
RM-D06-02	0.830000	0.000000	0.000000	200.000000	0.000000
; 438
RM-D06-03	3.000000	0.000000	0.000000	200.000000	0.000000
; 428
RM-D06-04	3.000000	0.000000	0.000000	200.000000	0.000000
; 2937
RM-D06-05	3.000000	0.000000	0.000000	200.000000	0.000000
; 710
RM-D11-01	3.000000	0.000000	0.000000	200.000000	0.000000
; 702
RM-D12-01	3.000000	0.000000	0.000000	200.000000	0.000000
; 5490
RM-D14-01	3.000000	0.000000	0.000000	200.000000	0.000000
; 5488
RM-D14-02	2.000000	0.000000	0.000000	200.000000	0.000000
; 680
RM-D17-01	3.000000	0.000000	0.000000	200.000000	0.000000
; 2236
RM-D17-02	1.200000	0.000000	0.000000	200.000000	0.000000
; 662
RM-D19-01	3.000000	0.000000	0.000000	200.000000	0.000000
; 650
RM-D25-01	3.000000	0.000000	0.000000	200.000000	0.000000
; 642
RM-D25-02	3.000000	0.000000	0.000000	200.000000	0.000000
; 644
RM-D25-03	3.000000	0.000000	0.000000	200.000000	0.000000
; 646
RM-D25-04	3.000000	0.000000	0.000000	200.000000	0.000000
; 648
RM-D25-05	3.000000	0.000000	0.000000	200.000000	0.000000
; 678
RM-D25-06	0.330000	0.000000	0.000000	200.000000	0.000000
; 686
RM-D25-07	3.000000	0.000000	0.000000	200.000000	0.000000
; 694
RM-D25-08	3.000000	0.000000	0.000000	200.000000	0.000000
; 448
RM-D26-01	3.000000	0.000000	0.000000	200.000000	0.000000
; 688
RM-D29-01	3.000000	0.000000	0.000000	200.000000	0.000000
; 696
RM-D30-01	3.000000	0.000000	0.000000	200.000000	0.000000
; 3524
RM-D31-01	3.000000	0.000000	0.000000	200.000000	0.000000
; 802
RM-D31-02	3.000000	0.000000	0.000000	200.000000	0.000000
; 660
RM-D32-01	3.000000	0.000000	0.000000	200.000000	0.000000
; 440
RM-D34-01	3.000000	0.000000	0.000000	200.000000	0.000000
; 498
RM-D39-01	3.000000	0.000000	0.000000	200.000000	0.000000
; 830
RM-D40-01	4.000000	0.000000	0.000000	200.000000	0.000000
; 492
RM-D41-01	3.000000	0.000000	0.000000	200.000000	0.000000
; 508
RM-D45-01	3.000000	0.000000	0.000000	200.000000	0.000000
; 432
RM-D55-01	3.000000	0.000000	0.000000	200.000000	0.000000
; 790
RM-D57-01	3.000000	0.000000	0.000000	200.000000	0.000000
; 786
RM-D60-01	2.000000	0.000000	0.000000	200.000000	0.000000
; 788
RM-D60-02	3.000000	0.000000	0.000000	200.000000	0.000000
RM-LB02	3.000000	1.000000	0.000000	150.000000	0.000000
; S064-00674M
S064-00674M	-3.280000	5.780000	0.000000	0.000000	0.000000
; S064-00717M
S064-00717M	-3.020000	5.500000	0.000000	0.000000	0.000000
; S074-00031M
S074-00031M	-2.290000	5.290000	0.000000	0.000000	0.000000
; S077-00013M
S077-00013M	-3.500000	6.500000	0.000000	0.000000	0.000000
; S083-00009M
S083-00009M	-1.820000	3.820000	0.000000	0.000000	0.000000

[OUTFALLS]
OF_D39	1.520000	FREE	NO
TP001	16.300000	FREE	NO

[DIVIDERS]

[STORAGE]
BARATTA_WELL	0.000000	200.000000	1.000000	FUNCTIONAL	0.000000	0.000000	20.000000	0.000000	0.000000
; 0.30000000
BENOWA_STAGE1_TANK	0.300000	9.400000	0.400000	TABULAR	BENOWA_STAGE_1	0.000000	0.000000
BIGGERRA_TANK	2.000000	200.000000	1.000000	FUNCTIONAL	0.000000	0.000000	20.000000	0.000000	0.000000
CLARIFIER_DIGESTER_1	4.530000	1.970000	0.000000	FUNCTIONAL	0.000000	0.000000	132.700000	0.000000	0.000000
CLARIFIER_DIGESTER_2	4.530000	1.970000	0.000000	FUNCTIONAL	0.000000	0.000000	132.700000	0.000000	0.000000
LABRADOR_TANK	3.000000	200.000000	0.000000	FUNCTIONAL	0.000000	0.000000	20.000000	0.000000	0.000000
; WW
S038-A12	-3.230000	9.000000	1.235000	FUNCTIONAL	0.000000	0.000000	14.137167	0.000000	0.000000
; WW
S039-A22	1.016000	12.600000	1.400000	FUNCTIONAL	0.000000	0.000000	7.540578	0.000000	0.000000
; WW
S040-A2	-3.720000	6.346000	1.450000	FUNCTIONAL	0.000000	0.000000	33.964544	0.000000	0.000000
; WW
S041-A1	-4.838000	7.500000	2.140000	FUNCTIONAL	0.000000	0.000000	17.918869	0.000000	0.000000
; WW
S041-A39	-4.249000	7.050000	1.205000	FUNCTIONAL	0.000000	0.000000	5.466513	0.000000	0.000000
; WW
S043-A28	-5.779000	9.610000	0.690000	FUNCTIONAL	0.000000	0.000000	12.566371	0.000000	0.000000
; WW
S058-A78	-6.411000	9.200000	1.059000	FUNCTIONAL	0.000000	0.000000	14.923257	0.000000	0.000000
; WW
S059-A14	-3.795000	7.500000	0.775000	FUNCTIONAL	0.000000	0.000000	12.503617	0.000000	0.000000
; WW
S060-A42	-4.724000	7.500000	1.500000	FUNCTIONAL	0.000000	0.000000	8.962087	0.000000	0.000000
; WW
S061-A18	-4.387000	6.800000	1.200000	FUNCTIONAL	0.000000	0.000000	12.597806	0.000000	0.000000
; WW
S062-A19	-3.867000	5.900000	0.930000	FUNCTIONAL	0.000000	0.000000	3.173087	0.000000	0.000000
; WW
S063-D40	-7.780000	12.893000	0.900000	FUNCTIONAL	0.000000	0.000000	31.808626	0.000000	0.000000
; WW
S064-D60	-5.410000	8.500000	0.400000	FUNCTIONAL	0.000000	0.000000	19.634954	0.000000	0.000000
; WW
S065-D57	-4.930000	7.700000	0.800000	FUNCTIONAL	0.000000	0.000000	13.854424	0.000000	0.000000
; WW
S066-D31	-3.080000	7.200000	0.400000	FUNCTIONAL	0.000000	0.000000	13.854424	0.000000	0.000000
; WW
S067-D12	-4.950000	7.269000	1.068000	FUNCTIONAL	0.000000	0.000000	16.591536	0.000000	0.000000
; WW
S068-D45	-3.106000	6.100000	0.676000	FUNCTIONAL	0.000000	0.000000	12.484822	0.000000	0.000000
; WW
S069-D11	-6.549000	9.020000	1.361000	FUNCTIONAL	0.000000	0.000000	17.105972	0.000000	0.000000
; WW
S070-D14	-5.329000	7.350000	1.380000	FUNCTIONAL	0.000000	0.000000	7.751978	0.000000	0.000000
; WW
S071-D30	-5.230000	7.667000	0.300000	FUNCTIONAL	0.000000	0.000000	6.605199	0.000000	0.000000
; WW
S072-D2	-3.000000	4.585000	0.625000	FUNCTIONAL	0.000000	0.000000	2.624474	0.000000	0.000000
; WW
S073-D29	-4.957000	7.900000	0.501000	FUNCTIONAL	0.000000	0.000000	4.948087	0.000000	0.000000
; WW
S074-D17	-4.068000	6.600000	0.658000	FUNCTIONAL	0.000000	0.000000	2.432849	0.000000	0.000000
; WW
S075-D19	-2.891000	5.000000	0.710000	FUNCTIONAL	0.000000	0.000000	2.659044	0.000000	0.000000
; WW
S076-D32	-4.336000	6.500000	0.616000	FUNCTIONAL	0.000000	0.000000	2.553179	0.000000	0.000000
; WW
S077-D25	-5.293000	8.200000	0.793000	FUNCTIONAL	0.000000	0.000000	2.496851	0.000000	0.000000
; WW
S078-D6	-7.520000	9.160000	1.000000	FUNCTIONAL	0.000000	0.000000	16.591536	0.000000	0.000000
; WW
S079-D26	-5.050000	7.849000	1.000000	FUNCTIONAL	0.000000	0.000000	12.366113	0.000000	0.000000
; WW
S080-D34	-3.680000	6.268000	0.610000	FUNCTIONAL	0.000000	0.000000	4.893043	0.000000	0.000000
; WW
S081-D55	-5.340000	7.766000	0.000000	FUNCTIONAL	0.000000	0.000000	7.068583	0.000000	0.000000
; WW
S082-D41	-5.507000	8.400000	0.800000	FUNCTIONAL	0.000000	0.000000	4.649156	0.000000	0.000000
; WW
S083-D39	-4.129000	7.100000	0.510000	FUNCTIONAL	0.000000	0.000000	6.998074	0.000000	0.000000
TRICKLING_FILTER_1	4.530000	1.970000	0.000000	FUNCTIONAL	0.000000	0.000000	1050.700000	0.000000	0.000000
TRICKLING_FILTER_2	4.530000	1.970000	0.000000	FUNCTIONAL	0.000000	0.000000	1050.700000	0.000000	0.000000

[CONDUITS]
BENOWA_ST2_1	BENOWA_N3	BENOWA_N2	1.930444	0.010000	0.000000	0.000000	0.000000	0.000000
; OD 762 MSCL - assume 5mm CLM
BENOWA_STG1_1	BENOWA_STAGE1_TANK	BENOWA_N2	6.526187	0.010000	-0.950000	0.000000	0.000000	0.000000
; 600nominal
BENOWA_STG1_2	BENOWA_N2	BENOWA_N1	25.777483	0.010000	0.000000	0.000000	0.000000	0.000000
BENOWA_STG2_2	TRICKLING_FILTER_1	BENOWA_N3	24.071660	0.010000	0.000000	0.000000	0.000000	0.000000
BENOWA_STG2_3	BENOWA_N4	BENOWA_N3	17.004866	0.010000	0.000000	0.000000	0.000000	0.000000
BENOWA_STG2_4	BENOWA_N5	BENOWA_N4	27.009675	0.010000	0.000000	0.000000	0.000000	0.000000
BENOWA_STG2_5	TRICKLING_FILTER_2	BENOWA_N5	2.333555	0.010000	0.000000	0.000000	0.000000	0.000000
BENOWA_STG2_6	BENOWA_N6	BENOWA_N5	4.983951	0.010000	0.000000	0.000000	0.000000	0.000000
BENOWA_STG2_7	CLARIFIER_DIGESTER_2	BENOWA_N6	2.244342	0.010000	0.000000	0.000000	0.000000	0.000000
BENOWA_STG2_8	CLARIFIER_DIGESTER_1	BENOWA_N4	1.810459	0.010000	0.000000	0.000000	0.000000	0.000000
; CO01070L1
GM-CO-TPL1	GM-CO-TP	TP001	60.198924	0.013000	0.000000	0.000000	0.000000	0.000000
OF_S083-D39L1	S083-D39	OF_D39	1.907646	0.013000	5.649000	0.000000	0.000000	0.000000
; 743
RM-A01-01L1	RM-A01-01	RM-A01-02	25.290546	0.013000	0.000000	0.000000	0.000000	0.000000
RM-A01-01L2	RM-A01-09	LABRADOR_TANK	58.801663	0.013000	0.000000	0.000000	0.000000	0.000000
; 749
RM-A01-02L1	RM-A01-02	RM-A01-03	725.501682	0.013000	0.000000	0.000000	0.000000	0.000000
; 735
RM-A01-03L1	RM-A01-03	RM-A01-04	1076.734694	0.013000	0.000000	0.000000	0.000000	0.000000
; 2261
RM-A01-04L1	RM-A01-04	RM-A01-05	533.463569	0.013000	0.000000	0.000000	0.000000	0.000000
; 725
RM-A01-05L1	RM-A01-05	RM-A01-06	1868.679712	0.013000	0.000000	0.000000	0.000000	0.000000
; 717
RM-A01-06L1	RM-A01-06	RM-A01-07	795.300754	0.013000	0.000000	0.000000	0.000000	0.000000
; 709
RM-A01-07L1	RM-A01-07	RM-A01-08	136.822194	0.013000	0.000000	0.000000	0.000000	0.000000
; 2265
RM-A01-08L1	RM-A01-08	RM-A01-09	124.140833	0.013000	0.000000	0.000000	0.000000	0.000000
; CDT-85
RM-A01-09L1	RM-A01-09	RM-A01-10	5.838402	0.013000	0.000000	0.000000	0.000000	0.000000
; 697
RM-A01-10L1	RM-A01-10	RM-A01-11	344.909330	0.013000	0.000000	0.000000	0.000000	0.000000
; 2267
RM-A01-11L1	RM-A01-11	RM-A01-12	102.941244	0.013000	0.000000	0.000000	0.000000	0.000000
; 689
RM-A01-12L1	RM-A01-12	RM-A01-13	899.121968	0.013000	0.000000	0.000000	0.000000	0.000000
; 681
RM-A01-13L1	RM-A01-13	RM-A01-14	641.606220	0.013000	0.000000	0.000000	0.000000	0.000000
; 2275
RM-A01-14L1	RM-A01-14	RM-A01-15	72.980748	0.013000	0.000000	0.000000	0.000000	0.000000
; 2273
RM-A01-15L1	RM-A01-15	RM-A01-16	137.965355	0.013000	0.000000	0.000000	0.000000	0.000000
; 673
RM-A01-16L1	RM-A01-16	RM-A01-17	363.930841	0.013000	0.000000	0.000000	0.000000	0.000000
; 671
RM-A01-17L1	RM-A01-17	RM-A01-18	38.297194	0.013000	0.000000	0.000000	0.000000	0.000000
; 7400
RM-A01-18L1	RM-A01-18	BIGGERRA_TANK	3.798666	0.013000	0.000000	-1.000000	0.000000	0.000000
; CDT-87
RM-A01-19L1	BIGGERRA_TANK	RM-A01-20	11.006790	0.013000	-1.000000	1.000000	0.000000	0.000000
; 517
RM-A01-20L1	RM-A01-20	RM-A01-21	1405.926548	0.013000	0.000000	0.000000	0.000000	0.000000
; 511
RM-A01-21L1	RM-A01-21	RM-A01-22	766.104651	0.013000	0.000000	0.000000	0.000000	0.000000
; 497
RM-A01-22L1	RM-A01-22	RM-A01-23	428.207135	0.013000	0.000000	0.000000	0.000000	0.000000
; 437
RM-A01-23L1	RM-A01-23	RM-A01-24	935.051926	0.013000	0.000000	0.000000	0.000000	0.000000
; 7632
RM-A01-24L1	RM-A01-24	GM-CO-TP	101.844718	0.013000	0.000000	0.000000	0.000000	0.000000
; 729
RM-A02-01L1	RM-A02-01	RM-A02-02	20.833151	0.013000	0.000000	0.000000	0.000000	0.000000
; 727
RM-A02-02L1	RM-A02-02	RM-A01-05	2.930622	0.013000	0.000000	0.000000	0.000000	0.000000
; 821
RM-A101-01L1	RM-A101-01	RM-A101-02	957.765361	0.013000	0.000000	0.000000	0.000000	0.000000
; 819
RM-A101-02L1	RM-A101-02	RM-A101-03	64.149614	0.013000	0.000000	0.000000	0.000000	0.000000
; 817
RM-A101-03L1	RM-A101-03	RM-A101-04	200.043175	0.013000	0.000000	0.000000	0.000000	0.000000
; 815
RM-A101-04L1	RM-A101-04	RM-A101-05	37.778319	0.013000	0.000000	0.000000	0.000000	0.000000
; 813
RM-A101-05L1	RM-A101-05	RM-A101-06	144.875199	0.013000	0.000000	0.000000	0.000000	0.000000
; 811
RM-A101-06L1	RM-A101-06	RM-A101-07	157.321007	0.013000	0.000000	0.000000	0.000000	0.000000
; 809
RM-A101-07L1	RM-A101-07	RM-A101-08	38.888358	0.013000	0.000000	0.000000	0.000000	0.000000
; 807
RM-A101-08L1	RM-A101-08	RM-A101-09	271.204677	0.013000	0.000000	0.000000	0.000000	0.000000
; 803
RM-A101-09L1	RM-A101-09	RM-A101-10	176.637858	0.013000	0.000000	0.000000	0.000000	0.000000
; 805
RM-A101-10L1	RM-A101-10	RM-A101-11	67.342579	0.013000	0.000000	0.000000	0.000000	0.000000
; 795
RM-A101-11L1	RM-A101-11	RM-A101-12	195.746274	0.013000	0.000000	0.000000	0.000000	0.000000
; 787
RM-A101-12L1	RM-A101-12	RM-A101-13	250.226535	0.013000	0.000000	0.000000	0.000000	0.000000
; 789
RM-A101-13L1	RM-A101-13	RM-A101-14	109.131704	0.013000	0.000000	0.000000	0.000000	0.000000
; 791
RM-A101-14L1	RM-A101-14	RM-A101-15	175.491915	0.013000	0.000000	0.000000	0.000000	0.000000
; 793
RM-A101-15L1	RM-A101-15	RM-A101-16	51.727822	0.013000	0.000000	0.000000	0.000000	0.000000
; 785
RM-A101-16L1	RM-A101-16	RM-A101-17	98.303524	0.013000	0.000000	0.000000	0.000000	0.000000
; 783
RM-A101-17L1	RM-A101-17	RM-A101-18	712.818560	0.013000	0.000000	0.000000	0.000000	0.000000
; 781
RM-A101-18L1	RM-A101-18	RM-A101-19	13.728336	0.013000	0.000000	0.000000	0.000000	0.000000
; 779
RM-A101-19L1	RM-A101-19	RM-A101-20	321.156365	0.013000	0.000000	0.000000	0.000000	0.000000
; 777
RM-A101-20L1	RM-A101-20	RM-A101-21	254.048372	0.013000	0.000000	0.000000	0.000000	0.000000
; 775
RM-A101-21L1	RM-A101-21	RM-A101-22	1271.625357	0.013000	0.000000	0.000000	0.000000	0.000000
; 767
RM-A101-22L1	RM-A101-22	RM-A101-23	624.901386	0.013000	0.000000	0.000000	0.000000	0.000000
; 765
RM-A101-23L1	RM-A101-23	RM-A101-24	32.764321	0.013000	0.000000	0.000000	0.000000	0.000000
; 763
RM-A101-24L1	RM-A101-24	RM-A101-25	100.149159	0.013000	0.000000	0.000000	0.000000	0.000000
; 433
RM-A101-25L1	RM-A101-25	RM-A101-26	1639.411475	0.013000	0.000000	0.000000	0.000000	0.000000
RM-A101-26L1	RM-A101-26	GM-CO-TP	40.427696	0.013000	0.000000	0.000000	0.000000	0.000000
RM-A101-98L1	RM-A101-98	RM-A101-01	20.862696	0.013000	0.000000	0.000000	0.000000	0.000000
; 925
RM-A102-01L1	RM-A102-01	RM-A102-UP	70.949094	0.013000	0.000000	0.000000	0.000000	0.000000
; 929
RM-A102-02L1	RM-A102-02	RM-A102-03	105.472987	0.013000	0.000000	0.000000	0.000000	0.000000
; 927
RM-A102-03L1	RM-A102-03	RM-A102-04	170.884922	0.013000	0.000000	0.000000	0.000000	0.000000
; 2279
RM-A102-04L1	RM-A102-04	RM-A102-05	127.849794	0.013000	0.000000	0.000000	0.000000	0.000000
; 911
RM-A102-05L1	RM-A102-05	RM-A78-03	642.728890	0.013000	0.000000	0.000000	0.000000	0.000000
RM-A102-05L2	RM-A102-05	RM-A102-06	414.279916	0.013000	0.000000	0.000000	0.000000	0.000000
; 909
RM-A102-06L1	RM-A102-06	RM-A28-02	455.928812	0.013000	0.000000	0.000000	0.000000	0.000000
; 925
RM-A102-0L2	RM-A102-UP	RM-A102-UP2	57.028809	0.013000	0.000000	0.000000	0.000000	0.000000
; 925
RM-A102-0L3	RM-A102-UP2	RM-A102-02	649.470141	0.013000	0.000000	0.000000	0.000000	0.000000
; 833
RM-A12-01L1	RM-A12-01	RM-A12-02	31.229117	0.013000	0.000000	0.000000	0.000000	0.000000
; 831
RM-A12-02L1	RM-A12-02	RM-A28-15	8.289774	0.013000	0.000000	0.000000	0.000000	0.000000
; 7642
RM-A14-01L1	RM-A14-01	RM-A14-02	5.870381	0.013000	0.000000	0.000000	0.000000	0.000000
; 7644
RM-A14-02L1	RM-A14-02	RM-A78-04	14.401336	0.013000	0.000000	0.000000	0.000000	0.000000
; 711
RM-A18-01L1	RM-A18-01	RM-A18-02	175.610755	0.013000	0.000000	0.000000	0.000000	0.000000
; 2263
RM-A18-02L1	RM-A18-02	RM-A01-07	34.195776	0.013000	0.000000	0.000000	0.000000	0.000000
; 691
RM-A19-01L1	RM-A19-01	RM-A01-12	33.826603	0.013000	0.000000	0.000000	0.000000	0.000000
; 849
RM-A22-01L1	RM-A22-01	RM-A12-02	959.121218	0.013000	0.000000	0.000000	0.000000	0.000000
; 875
RM-A28-01L1	RM-A28-01	RM-A28-02	445.701451	0.013000	0.000000	0.000000	0.000000	0.000000
; 881
RM-A28-02L1	RM-A28-02	RM-A28-03	11.508298	0.013000	0.000000	0.000000	0.000000	0.000000
; 883
RM-A28-03L1	RM-A28-03	RM-A28-04	6.528500	0.013000	0.000000	0.000000	0.000000	0.000000
; 885
RM-A28-04L1	RM-A28-04	RM-A28-05	255.806194	0.013000	0.000000	0.000000	0.000000	0.000000
; 887
RM-A28-05L1	RM-A28-05	RM-A28-06	120.700759	0.013000	0.000000	0.000000	0.000000	0.000000
; 889
RM-A28-06L1	RM-A28-06	RM-A28-07	78.986238	0.013000	0.000000	0.000000	0.000000	0.000000
; 891
RM-A28-07L1	RM-A28-07	RM-A28-08	404.564262	0.013000	0.000000	0.000000	0.000000	0.000000
; 893
RM-A28-08L1	RM-A28-08	RM-A28-09	168.445778	0.013000	0.000000	0.000000	0.000000	0.000000
; 895
RM-A28-09L1	RM-A28-09	RM-A28-10	1265.888274	0.013000	0.000000	0.000000	0.000000	0.000000
; 10097
RM-A28-10L1	RM-A28-10	RM-A28-11	92.352555	0.013000	0.000000	0.000000	0.000000	0.000000
; 10099
RM-A28-11L1	RM-A28-11	RM-A28_1003	314.971271	0.013000	0.000000	0.000000	0.000000	0.000000
; 10099
RM-A28-11L1000	RM-A28_1003	RM-A28-12	159.351412	0.013000	0.000000	0.000000	0.000000	0.000000
; 10101
RM-A28-12L1	RM-A28-12	RM-A28-13	277.536697	0.013000	0.000000	0.000000	0.000000	0.000000
; 843
RM-A28-13L1	RM-A28-13	RM-A28-1001	166.581401	0.013000	0.000000	0.000000	0.000000	0.000000
; 843
RM-A28-13L100	RM-A28-1000	RM-A28-14	167.521211	0.013000	0.000000	0.000000	0.000000	0.000000
; 843
RM-A28-13L1001	RM-A28-1001	RM-A28-1000	298.348233	0.013000	0.003000	0.000000	0.000000	0.000000
; 10103
RM-A28-14L1	RM-A28-14	RM-A28-15	462.805008	0.013000	0.000000	0.000000	0.000000	0.000000
; 829
RM-A28-15L1	RM-A28-15	RM-A28-16	28.124005	0.013000	0.000000	0.000000	0.000000	0.000000
; CDT-83
RM-A28-16L1	RM-A28-16	RM-A101-01	20.171001	0.013000	0.000000	0.000000	0.000000	0.000000
RM-A28-16L2	RM-A28-16	BARATTA_WELL	21.444053	0.013000	0.000000	0.000000	0.000000	0.000000
; 737
RM-A39-01L1	RM-A39-01	RM-A39-02	621.930598	0.013000	0.000000	0.000000	0.000000	0.000000
; 10079
RM-A39-02L1	RM-A39-02	RM-A01-03	22.023834	0.013000	0.000000	0.000000	0.000000	0.000000
; 719
RM-A42-01L1	RM-A42-01	RM-A01-06	26.970388	0.013000	0.000000	0.000000	0.000000	0.000000
; 901
RM-A78-01L1	RM-A78-01	RM-A78-02	365.761544	0.013000	0.000000	0.000000	0.000000	0.000000
; 2259
RM-A78-02L1	RM-A78-02	RM-A78-03	291.133963	0.013000	0.000000	0.000000	0.000000	0.000000
; 905
RM-A78-03L1	RM-A78-03	RM-A78-03A	132.843423	0.013000	0.000000	0.000000	0.000000	0.000000
; 905
RM-A78-03L2	RM-A78-03A	RM-A78-04	565.410184	0.013000	0.000000	0.000000	0.000000	0.000000
; 2281
RM-A78-04L1	RM-A78-04	RM-A78-05	195.540875	0.013000	0.000000	0.000000	0.000000	0.000000
; 2283
RM-A78-05L1	RM-A78-05	RM-A78-06	293.545802	0.013000	0.000000	0.000000	0.000000	0.000000
; 903
RM-A78-06L1	RM-A78-06	RM-A78-07	1142.035094	0.013000	0.000000	0.000000	0.000000	0.000000
RM-A78-07L1	RM-A78-07	RM-A01-02	2.099718	0.013000	0.000000	0.000000	0.000000	0.000000
; 751
RM-A78-07L2	RM-A78-07	RM-A28-10	654.753928	0.013000	0.000000	0.000000	0.000000	0.000000
; 643
RM-D02-01L1	RM-D02-01	RM-D02-02	202.085460	0.013000	0.000000	0.000000	0.000000	0.000000
; 2269
RM-D02-02L1	RM-D02-02	RM-D25-05	119.559824	0.013000	0.000000	0.000000	0.000000	0.000000
; 477
RM-D06-01L1	RM-D06-01	RM-D06-02	2271.328530	0.013000	0.000000	0.000000	0.000000	0.000000
; 453
RM-D06-02L1	RM-D06-02	RM-D06-03	204.905541	0.013000	0.000000	0.000000	0.000000	0.000000
; 445
RM-D06-03L1	RM-D06-03	RM-D06-04	624.394288	0.013000	0.000000	0.000000	0.000000	0.000000
; 435
RM-D06-04L1	RM-D06-04	RM-D06-05	1606.032881	0.013000	0.000000	0.000000	0.000000	0.000000
; 4756
RM-D06-05L1	RM-D06-05	RM-A01-24	4.500346	0.013000	0.000000	0.000000	0.000000	0.000000
; 683
RM-D11-01L1	RM-D11-01	RM-A01-13	12.014558	0.013000	0.000000	0.000000	0.000000	0.000000
; 675
RM-D12-01L1	RM-D12-01	RM-A01-14	31.882609	0.013000	0.000000	0.000000	0.000000	0.000000
; 7390
RM-D14-01L1	RM-D14-01	RM-D14-02	11.195879	0.013000	0.000000	0.000000	0.000000	0.000000
; 7646
RM-D14-02L1	RM-D14-02	RM-A01-18	12.906705	0.013000	0.000000	0.000000	0.000000	0.000000
; 2271
RM-D17-01L1	RM-D17-01	RM-D17-02	138.076792	0.013000	0.000000	0.000000	0.000000	0.000000
; 651
RM-D17-02L1	RM-D17-02	RM-D25-06	184.856019	0.013000	0.000000	0.000000	0.000000	0.000000
; 631
RM-D19-01L1	RM-D19-01	RM-D25-04	97.449393	0.013000	0.000000	0.000000	0.000000	0.000000
; 617
RM-D25-01L1	RM-D25-01	RM-D25-02	114.238260	0.013000	0.000000	0.000000	0.000000	0.000000
; 615
RM-D25-02L1	RM-D25-02	RM-D25-03	437.991865	0.013000	0.000000	0.000000	0.000000	0.000000
; 629
RM-D25-03L1	RM-D25-03	RM-D25-04	246.658019	0.013000	0.000000	0.000000	0.000000	0.000000
; 641
RM-D25-04L1	RM-D25-04	RM-D25-05	712.165226	0.013000	0.000000	0.000000	0.000000	0.000000
; 649
RM-D25-05L1	RM-D25-05	RM-D25-06	458.629202	0.013000	0.000000	0.000000	0.000000	0.000000
; 663
RM-D25-06L1	RM-D25-06	RM-D25-07	25.686272	0.013000	0.000000	0.000000	0.000000	0.000000
; 667
RM-D25-07L1	RM-D25-07	RM-D25-08	788.076555	0.013000	0.000000	0.000000	0.000000	0.000000
; 669
RM-D25-08L1	RM-D25-08	RM-A01-17	674.194408	0.013000	0.000000	0.000000	0.000000	0.000000
; 459
RM-D26-01L1	RM-D26-01	RM-D06-02	839.568763	0.013000	0.000000	0.000000	0.000000	0.000000
; 657
RM-D29-01L1	RM-D29-01	RM-D25-07	392.399698	0.013000	0.000000	0.000000	0.000000	0.000000
; 665
RM-D30-01L1	RM-D30-01	RM-D25-08	9.392549	0.013000	0.000000	0.000000	0.000000	0.000000
; 3047
RM-D31-01L1	RM-D31-01	RM-D31-02	1.007517	0.013000	0.000000	0.000000	0.000000	0.000000
; 769
RM-D31-02L1	RM-D31-02	RM-A101-22	379.198380	0.013000	0.000000	0.000000	0.000000	0.000000
; 627
RM-D32-01L1	RM-D32-01	RM-D25-03	169.496848	0.013000	0.000000	0.000000	0.000000	0.000000
; 451
RM-D34-01L1	RM-D34-01	RM-D06-03	10.943595	0.013000	0.000000	0.000000	0.000000	0.000000
; 499
RM-D39-01L1	RM-D39-01	RM-A01-22	10.154478	0.013000	0.000000	0.000000	0.000000	0.000000
; 797
RM-D40-01L1	RM-D40-01	RM-A101-12	18.898298	0.013000	0.000000	0.000000	0.000000	0.000000
; 495
RM-D41-01L1	RM-D41-01	RM-A01-23	887.585336	0.013000	0.000000	0.000000	0.000000	0.000000
; 509
RM-D45-01L1	RM-D45-01	RM-A01-21	22.749413	0.013000	0.000000	0.000000	0.000000	0.000000
; 443
RM-D55-01L1	RM-D55-01	RM-D06-04	497.393441	0.013000	0.000000	0.000000	0.000000	0.000000
; 759
RM-D57-01L1	RM-D57-01	RM-D60-02	7.119185	0.013000	0.000000	0.000000	0.000000	0.000000
; 757
RM-D60-01L1	RM-D60-01	RM-D60-02	1524.239056	0.013000	0.000000	0.000000	0.000000	0.000000
; 761
RM-D60-02L1	RM-D60-02	RM-A101-25	69.169090	0.013000	0.000000	0.000000	0.000000	0.000000
RM-LB02L1	RM-LB02	RM-A01-10	61.878929	0.013000	0.000000	0.000000	0.000000	0.000000
; S064-00674ML1
S064-00674ML1	S064-00674M	S064-D60	14.160000	0.013000	0.000000	2.120000	0.000000	0.000000
; S064-00717ML1
S064-00717ML1	S064-00717M	S064-00674M	10.980000	0.013000	0.000000	0.040000	0.000000	0.000000
; S074-00031ML1
S074-00031ML1	S074-00031M	S074-D17	3.825618	0.013000	0.000000	1.738000	0.000000	0.000000
; S077-00013ML1
S077-00013ML1	S077-00013M	S077-D25	3.800000	0.013000	0.000000	1.723000	0.000000	0.000000
; S083-00009ML1
S083-00009ML1	S083-00009M	S083-D39	16.460000	0.013000	0.000000	2.299000	0.000000	0.000000

[PUMPS]
A01P1	S041-A1	RM-A01-01	A1	ON	2.580000	2.140000
A01P2	S041-A1	RM-A01-01	A1	ON	2.780000	2.140000
A02P1	S040-A2	RM-A02-01	A2	ON	2.050000	1.450000
A02P2	S040-A2	RM-A02-01	A2	ON	2.250000	1.450000
A02P3	S040-A2	RM-A02-01	A2	ON	2.250000	1.450000
; BARRATTA BOOSTER PUMP 1
A101P1	BARATTA_WELL	RM-A101-98	A101	OFF	22.000000	16.500000
A102P1	BENOWA_N1	RM-A102-01	BR01A	OFF	999.000000	0.000000
A102P2	BENOWA_N1	RM-A102-01	BR01A	OFF	999.000000	0.000000
A12P1	S038-A12	RM-A12-01	A12	ON	1.889000	1.235000
A12P2	S038-A12	RM-A12-01	A12	ON	2.089000	1.235000
A14P1	S059-A14	RM-A14-01	A14	ON	1.405000	0.775000