[OPTIONS]
;Option and Files Scenario Set: OPT-3A, mdc 2day.  1secSteps
FLOW_UNITS	LPS
INFILTRATION	HORTON
FLOW_ROUTING	DYNWAVE
ALLOW_PONDING	YES
DRY_DAYS	5.000000
SKIP_STEADY_STATE 	NO
IGNORE_RAINFALL	NO
IGNORE_SNOWMELT	NO
IGNORE_GROUNDWATER	NO
IGNORE_QUALITY	NO
FORCE_MAIN_EQUATION	D-W
LINK_OFFSETS	DEPTH
MIN_SLOPE	0.000000
START_DATE	07/06/2012
START_TIME	00:00
END_DATE	07/07/2012
END_TIME	23:00
REPORT_START_DATE	07/06/2012
REPORT_START_TIME	00:30
SWEEP_START	01/01
SWEEP_END	12/31
WET_STEP	00:10:00
DRY_STEP	00:10:00
ROUTING_STEP	1
REPORT_STEP	00:30:00
INERTIAL_DAMPING	NONE
VARIABLE_STEP	0.850000
MINIMUM_STEP	0.000000
LENGTHENING_STEP	0
MIN_SURFAREA	0.000000
NORMAL_FLOW_LIMITED	SLOPE
MAX_TRIALS	4
HEAD_TOLERANCE	0.005000

[FILES]

[RAINGAGES]
; Beehive Raingage
RAINGAGE-3	VOLUME	1.000000	1.000000	TIMESERIES	TIMESERI-1		
; GPurkisss Raingage
RAINGAGE-5	VOLUME	1.000000	1.000000	TIMESERIES	TIMESERI-1		
; GColeman Raingage
RAINGAGE-7	VOLUME	1.000000	1.000000	TIMESERIES	TIMESERI-1		
; GNelson Raingage
RAINGAGE-9	VOLUME	1.000000	1.000000	TIMESERIES	TIMESERI-1		

[HYDROGRAPHS]
; 
HG-BATT-10YR	RAINGAGE-9
HG-BATT-10YR	ALL	Short	0.000700	1.000000	2.000000	0.000000	0.000000	0.000000
HG-BATT-10YR	ALL	Medium	0.000000	0.000000	0.000000	0.000000	0.000000	0.000000
HG-BATT-10YR	ALL	Long	0.000000	0.000000	0.000000	0.000000	0.000000	0.000000
; 
HG-BATT-2YR	RAINGAGE-9
HG-BATT-2YR	ALL	Short	0.000600	1.000000	2.000000	0.000000	0.000000	0.000000
HG-BATT-2YR	ALL	Medium	0.000000	0.000000	0.000000	0.000000	0.000000	0.000000
HG-BATT-2YR	ALL	Long	0.000000	0.000000	0.000000	0.000000	0.000000	0.000000
; 
HG-BRAY-10YR	RAINGAGE-9
HG-BRAY-10YR	ALL	Short	0.050000	1.000000	2.000000	0.000000	0.000000	0.000000
HG-BRAY-10YR	ALL	Medium	0.000000	0.000000	0.000000	0.000000	0.000000	0.000000
HG-BRAY-10YR	ALL	Long	0.000000	0.000000	0.000000	0.000000	0.000000	0.000000
; 
HG-BRAY-2YR	RAINGAGE-9
HG-BRAY-2YR	ALL	Short	0.036000	1.000000	2.000000	0.000000	0.000000	0.000000
HG-BRAY-2YR	ALL	Medium	0.000000	0.000000	0.000000	0.000000	0.000000	0.000000
HG-BRAY-2YR	ALL	Long	0.000000	0.000000	0.000000	0.000000	0.000000	0.000000
; 
HG-BROO-10YR	RAINGAGE-9
HG-BROO-10YR	ALL	Short	0.040000	1.000000	2.000000	0.000000	0.000000	0.000000
HG-BROO-10YR	ALL	Medium	0.000000	0.000000	0.000000	0.000000	0.000000	0.000000
HG-BROO-10YR	ALL	Long	0.000000	0.000000	0.000000	0.000000	0.000000	0.000000
; 
HG-BROO-2YR	RAINGAGE-9
HG-BROO-2YR	ALL	Short	0.025000	1.000000	2.000000	0.000000	0.000000	0.000000
HG-BROO-2YR	ALL	Medium	0.000000	0.000000	0.000000	0.000000	0.000000	0.000000
HG-BROO-2YR	ALL	Long	0.000000	0.000000	0.000000	0.000000	0.000000	0.000000
; 
HG-BURL-10YR	RAINGAGE-9
HG-BURL-10YR	ALL	Short	0.014000	1.000000	2.000000	0.000000	0.000000	0.000000
HG-BURL-10YR	ALL	Medium	0.000000	0.000000	0.000000	0.000000	0.000000	0.000000
HG-BURL-10YR	ALL	Long	0.000000	0.000000	0.000000	0.000000	0.000000	0.000000
; 
HG-BURL-2YR	RAINGAGE-9
HG-BURL-2YR	ALL	Short	0.010000	1.000000	2.000000	0.000000	0.000000	0.000000
HG-BURL-2YR	ALL	Medium	0.000000	0.000000	0.000000	0.000000	0.000000	0.000000
HG-BURL-2YR	ALL	Long	0.000000	0.000000	0.000000	0.000000	0.000000	0.000000
; 
HG-DECA-10YR	RAINGAGE-9
HG-DECA-10YR	ALL	Short	0.070000	1.000000	2.000000	0.000000	0.000000	0.000000
HG-DECA-10YR	ALL	Medium	0.000000	0.000000	0.000000	0.000000	0.000000	0.000000
HG-DECA-10YR	ALL	Long	0.000000	0.000000	0.000000	0.000000	0.000000	0.000000
; 
HG-DECA-2YR	RAINGAGE-9
HG-DECA-2YR	ALL	Short	0.047000	1.000000	2.000000	0.000000	0.000000	0.000000
HG-DECA-2YR	ALL	Medium	0.000000	0.000000	0.000000	0.000000	0.000000	0.000000
HG-DECA-2YR	ALL	Long	0.000000	0.000000	0.000000	0.000000	0.000000	0.000000
; 
HG-DRYH-10YR	RAINGAGE-9
HG-DRYH-10YR	ALL	Short	0.033500	1.000000	2.000000	0.000000	0.000000	0.000000
HG-DRYH-10YR	ALL	Medium	0.000000	0.000000	0.000000	0.000000	0.000000	0.000000
HG-DRYH-10YR	ALL	Long	0.000000	0.000000	0.000000	0.000000	0.000000	0.000000
; 
HG-DRYH-1YR	RAINGAGE-9
HG-DRYH-1YR	ALL	Short	0.020000	1.000000	2.000000	0.000000	0.000000	0.000000
HG-DRYH-1YR	ALL	Medium	0.000000	0.000000	0.000000	0.000000	0.000000	0.000000
HG-DRYH-1YR	ALL	Long	0.000000	0.000000	0.000000	0.000000	0.000000	0.000000
; 
HG-DRYH-2YR	RAINGAGE-9
HG-DRYH-2YR	ALL	Short	0.023500	1.000000	2.000000	0.000000	0.000000	0.000000
HG-DRYH-2YR	ALL	Medium	0.000000	0.000000	0.000000	0.000000	0.000000	0.000000
HG-DRYH-2YR	ALL	Long	0.000000	0.000000	0.000000	0.000000	0.000000	0.000000
; 
HG-FAIR-10YR	RAINGAGE-9
HG-FAIR-10YR	ALL	Short	0.032000	1.000000	2.000000	0.000000	0.000000	0.000000
HG-FAIR-10YR	ALL	Medium	0.000000	0.000000	0.000000	0.000000	0.000000	0.000000
HG-FAIR-10YR	ALL	Long	0.000000	0.000000	0.000000	0.000000	0.000000	0.000000
; 
HG-FAIR-1YR	RAINGAGE-9
HG-FAIR-1YR	ALL	Short	0.020000	1.000000	2.000000	0.000000	0.000000	0.000000
HG-FAIR-1YR	ALL	Medium	0.000000	0.000000	0.000000	0.000000	0.000000	0.000000
HG-FAIR-1YR	ALL	Long	0.000000	0.000000	0.000000	0.000000	0.000000	0.000000
; 
HG-FAIR-1YRARI	RAINGAGE-9
HG-FAIR-1YRARI	ALL	Short	0.020000	1.000000	2.000000	0.000000	0.000000	0.000000
HG-FAIR-1YRARI	ALL	Medium	0.000000	0.000000	0.000000	0.000000	0.000000	0.000000
HG-FAIR-1YRARI	ALL	Long	0.000000	0.000000	0.000000	0.000000	0.000000	0.000000
; 
HG-FAIR-2YR	RAINGAGE-9
HG-FAIR-2YR	ALL	Short	0.023000	1.000000	2.000000	0.000000	0.000000	0.000000
HG-FAIR-2YR	ALL	Medium	0.000000	0.000000	0.000000	0.000000	0.000000	0.000000
HG-FAIR-2YR	ALL	Long	0.000000	0.000000	0.000000	0.000000	0.000000	0.000000
; 
HG-FAUL-10YR	RAINGAGE-9
HG-FAUL-10YR	ALL	Short	0.022000	1.000000	2.000000	0.000000	0.000000	0.000000
HG-FAUL-10YR	ALL	Medium	0.000000	0.000000	0.000000	0.000000	0.000000	0.000000
HG-FAUL-10YR	ALL	Long	0.000000	0.000000	0.000000	0.000000	0.000000	0.000000
; 
HG-FAUL-2YR	RAINGAGE-9
HG-FAUL-2YR	ALL	Short	0.016000	1.000000	2.000000	0.000000	0.000000	0.000000
HG-FAUL-2YR	ALL	Medium	0.000000	0.000000	0.000000	0.000000	0.000000	0.000000
HG-FAUL-2YR	ALL	Long	0.000000	0.000000	0.000000	0.000000	0.000000	0.000000
; 
HG-FSCH-10YR	RAINGAGE-9
HG-FSCH-10YR	ALL	Short	0.022000	1.000000	2.000000	0.000000	0.000000	0.000000
HG-FSCH-10YR	ALL	Medium	0.000000	0.000000	0.000000	0.000000	0.000000	0.000000
HG-FSCH-10YR	ALL	Long	0.000000	0.000000	0.000000	0.000000	0.000000	0.000000
; 
HG-FSCH-1YR	RAINGAGE-9
HG-FSCH-1YR	ALL	Short	0.012000	1.000000	2.000000	0.000000	0.000000	0.000000
HG-FSCH-1YR	ALL	Medium	0.000000	0.000000	0.000000	0.000000	0.000000	0.000000
HG-FSCH-1YR	ALL	Long	0.000000	0.000000	0.000000	0.000000	0.000000	0.000000
; 
HG-FSCH-2YR	RAINGAGE-9
HG-FSCH-2YR	ALL	Short	0.016000	1.000000	2.000000	0.000000	0.000000	0.000000
HG-FSCH-2YR	ALL	Medium	0.000000	0.000000	0.000000	0.000000	0.000000	0.000000
HG-FSCH-2YR	ALL	Long	0.000000	0.000000	0.000000	0.000000	0.000000	0.000000
; 
HG-GBUD-10YRARI	RAINGAGE-9
HG-GBUD-10YRARI	ALL	Short	0.136000	1.000000	2.000000	0.000000	0.000000	0.000000
HG-GBUD-10YRARI	ALL	Medium	0.000000	0.000000	0.000000	0.000000	0.000000	0.000000
HG-GBUD-10YRARI	ALL	Long	0.000000	0.000000	0.000000	0.000000	0.000000	0.000000
; 
HG-GBUD-1YRARI	RAINGAGE-9
HG-GBUD-1YRARI	ALL	Short	0.090000	1.000000	2.000000	0.000000	0.000000	0.000000
HG-GBUD-1YRARI	ALL	Medium	0.000000	0.000000	0.000000	0.000000	0.000000	0.000000
HG-GBUD-1YRARI	ALL	Long	0.000000	0.000000	0.000000	0.000000	0.000000	0.000000
; 
HG-GBUD-2YRARI	RAINGAGE-9
HG-GBUD-2YRARI	ALL	Short	0.102000	1.000000	2.000000	0.000000	0.000000	0.000000
HG-GBUD-2YRARI	ALL	Medium	0.000000	0.000000	0.000000	0.000000	0.000000	0.000000
HG-GBUD-2YRARI	ALL	Long	0.000000	0.000000	0.000000	0.000000	0.000000	0.000000
; 
HG-GMURPHY-10YRARI	RAINGAGE-3
HG-GMURPHY-10YRARI	ALL	Short	0.091000	1.000000	2.000000	0.000000	0.000000	0.000000
HG-GMURPHY-10YRARI	ALL	Medium	0.000000	0.000000	0.000000	0.000000	0.000000	0.000000
HG-GMURPHY-10YRARI	ALL	Long	0.000000	0.000000	0.000000	0.000000	0.000000	0.000000
; 
HG-GMURPHY-1YR	RAINGAGE-3
HG-GMURPHY-1YR	ALL	Short	0.060000	1.000000	2.000000	0.000000	0.000000	0.000000
HG-GMURPHY-1YR	ALL	Medium	0.000000	0.000000	0.000000	0.000000	0.000000	0.000000
HG-GMURPHY-1YR	ALL	Long	0.000000	0.000000	0.000000	0.000000	0.000000	0.000000
; 
HG-GMURPHY-2YRARI	RAINGAGE-3
HG-GMURPHY-2YRARI	ALL	Short	0.068000	1.000000	2.000000	0.000000	0.000000	0.000000
HG-GMURPHY-2YRARI	ALL	Medium	0.000000	0.000000	0.000000	0.000000	0.000000	0.000000
HG-GMURPHY-2YRARI	ALL	Long	0.000000	0.000000	0.000000	0.000000	0.000000	0.000000
; 
HG-HITA-10YR	RAINGAGE-9
HG-HITA-10YR	ALL	Short	0.076000	1.000000	2.000000	0.000000	0.000000	0.000000
HG-HITA-10YR	ALL	Medium	0.000000	0.000000	0.000000	0.000000	0.000000	0.000000
HG-HITA-10YR	ALL	Long	0.000000	0.000000	0.000000	0.000000	0.000000	0.000000
; 
HG-HITA-1YR	RAINGAGE-9
HG-HITA-1YR	ALL	Short	0.045000	1.000000	2.000000	0.000000	0.000000	0.000000
HG-HITA-1YR	ALL	Medium	0.000000	0.000000	0.000000	0.000000	0.000000	0.000000
HG-HITA-1YR	ALL	Long	0.000000	0.000000	0.000000	0.000000	0.000000	0.000000
; 
HG-HITA-2YR	RAINGAGE-9
HG-HITA-2YR	ALL	Short	0.053000	1.000000	2.000000	0.000000	0.000000	0.000000
HG-HITA-2YR	ALL	Medium	0.000000	0.000000	0.000000	0.000000	0.000000	0.000000
HG-HITA-2YR	ALL	Long	0.000000	0.000000	0.000000	0.000000	0.000000	0.000000
; 
HG-HOPE-10YR	RAINGAGE-9
HG-HOPE-10YR	ALL	Short	0.022000	1.000000	2.000000	0.000000	0.000000	0.000000
HG-HOPE-10YR	ALL	Medium	0.000000	0.000000	0.000000	0.000000	0.000000	0.000000
HG-HOPE-10YR	ALL	Long	0.000000	0.000000	0.000000	0.000000	0.000000	0.000000
; 
HG-HOPE-2YR	RAINGAGE-9
HG-HOPE-2YR	ALL	Short	0.016000	1.000000	2.000000	0.000000	0.000000	0.000000
HG-HOPE-2YR	ALL	Medium	0.000000	0.000000	0.000000	0.000000	0.000000	0.000000
HG-HOPE-2YR	ALL	Long	0.000000	0.000000	0.000000	0.000000	0.000000	0.000000
; 
HG-HOSP-10YR	RAINGAGE-9
HG-HOSP-10YR	ALL	Short	0.030000	1.000000	2.000000	0.000000	0.000000	0.000000
HG-HOSP-10YR	ALL	Medium	0.000000	0.000000	0.000000	0.000000	0.000000	0.000000
HG-HOSP-10YR	ALL	Long	0.000000	0.000000	0.000000	0.000000	0.000000	0.000000
; 
HG-HOSP-2YR	RAINGAGE-9
HG-HOSP-2YR	ALL	Short	0.023000	1.000000	2.000000	0.000000	0.000000	0.000000
HG-HOSP-2YR	ALL	Medium	0.000000	0.000000	0.000000	0.000000	0.000000	0.000000
HG-HOSP-2YR	ALL	Long	0.000000	0.000000	0.000000	0.000000	0.000000	0.000000
; 
HG-KING-10YRARI	RAINGAGE-9
HG-KING-10YRARI	ALL	Short	0.061000	1.000000	2.000000	0.000000	0.000000	0.000000
HG-KING-10YRARI	ALL	Medium	0.000000	0.000000	0.000000	0.000000	0.000000	0.000000
HG-KING-10YRARI	ALL	Long	0.000000	0.000000	0.000000	0.000000	0.000000	0.000000
; 
HG-KING-1YRARI	RAINGAGE-9
HG-KING-1YRARI	ALL	Short	0.040000	1.000000	2.000000	0.000000	0.000000	0.000000
HG-KING-1YRARI	ALL	Medium	0.000000	0.000000	0.000000	0.000000	0.000000	0.000000
HG-KING-1YRARI	ALL	Long	0.000000	0.000000	0.000000	0.000000	0.000000	0.000000
; 
HG-KING-2YRARI	RAINGAGE-9
HG-KING-2YRARI	ALL	Short	0.045000	1.000000	2.000000	0.000000	0.000000	0.000000
HG-KING-2YRARI	ALL	Medium	0.000000	0.000000	0.000000	0.000000	0.000000	0.000000
HG-KING-2YRARI	ALL	Long	0.000000	0.000000	0.000000	0.000000	0.000000	0.000000
; 
HG-KINR-10YRARI	RAINGAGE-9
HG-KINR-10YRARI	ALL	Short	0.068000	1.000000	2.000000	0.000000	0.000000	0.000000
HG-KINR-10YRARI	ALL	Medium	0.000000	0.000000	0.000000	0.000000	0.000000	0.000000
HG-KINR-10YRARI	ALL	Long	0.000000	0.000000	0.000000	0.000000	0.000000	0.000000
; 
HG-KINR-1YRARI	RAINGAGE-9
HG-KINR-1YRARI	ALL	Short	0.047000	1.000000	2.000000	0.000000	0.000000	0.000000
HG-KINR-1YRARI	ALL	Medium	0.000000	0.000000	0.000000	0.000000	0.000000	0.000000
HG-KINR-1YRARI	ALL	Long	0.000000	0.000000	0.000000	0.000000	0.000000	0.000000
; 
HG-KINR-2YRARI	RAINGAGE-9
HG-KINR-2YRARI	ALL	Short	0.052000	1.000000	2.000000	0.000000	0.000000	0.000000
HG-KINR-2YRARI	ALL	Medium	0.000000	0.000000	0.000000	0.000000	0.000000	0.000000
HG-KINR-2YRARI	ALL	Long	0.000000	0.000000	0.000000	0.000000	0.000000	0.000000
; 
HG-MRRW-10YRARI	RAINGAGE-9
HG-MRRW-10YRARI	ALL	Short	0.098000	1.000000	2.000000	0.000000	0.000000	0.000000
HG-MRRW-10YRARI	ALL	Medium	0.000000	0.000000	0.000000	0.000000	0.000000	0.000000
HG-MRRW-10YRARI	ALL	Long	0.000000	0.000000	0.000000	0.000000	0.000000	0.000000
; 
HG-MRRW-1YRARI	RAINGAGE-9
HG-MRRW-1YRARI	ALL	Short	0.065000	1.000000	2.000000	0.000000	0.000000	0.000000
HG-MRRW-1YRARI	ALL	Medium	0.000000	0.000000	0.000000	0.000000	0.000000	0.000000
HG-MRRW-1YRARI	ALL	Long	0.000000	0.000000	0.000000	0.000000	0.000000	0.000000
; 
HG-MRRW-2YRARI	RAINGAGE-9
HG-MRRW-2YRARI	ALL	Short	0.074000	1.000000	2.000000	0.000000	0.000000	0.000000
HG-MRRW-2YRARI	ALL	Medium	0.000000	0.000000	0.000000	0.000000	0.000000	0.000000
HG-MRRW-2YRARI	ALL	Long	0.000000	0.000000	0.000000	0.000000	0.000000	0.000000
; 
HG-N1N2-1YR-ARI	RAINGAGE-9
HG-N1N2-1YR-ARI	ALL	Short	0.012000	1.000000	2.000000	0.000000	0.000000	0.000000
HG-N1N2-1YR-ARI	ALL	Medium	0.000000	0.000000	0.000000	0.000000	0.000000	0.000000
HG-N1N2-1YR-ARI	ALL	Long	0.000000	0.000000	0.000000	0.000000	0.000000	0.000000
; 
HG-N1N2-2YR-ARI	RAINGAGE-9
HG-N1N2-2YR-ARI	ALL	Short	0.014000	1.000000	2.000000	0.000000	0.000000	0.000000
HG-N1N2-2YR-ARI	ALL	Medium	0.000000	0.000000	0.000000	0.000000	0.000000	0.000000
HG-N1N2-2YR-ARI	ALL	Long	0.000000	0.000000	0.000000	0.000000	0.000000	0.000000
; 
HG-NE-10YRARI	RAINGAGE-9
HG-NE-10YRARI	ALL	Short	0.048000	1.000000	2.000000	0.000000	0.000000	0.000000
HG-NE-10YRARI	ALL	Medium	0.000000	0.000000	0.000000	0.000000	0.000000	0.000000
HG-NE-10YRARI	ALL	Long	0.000000	0.000000	0.000000	0.000000	0.000000	0.000000
; 
HG-NE-1YRARI	RAINGAGE-9
HG-NE-1YRARI	ALL	Short	0.030000	1.000000	2.000000	0.000000	0.000000	0.000000
HG-NE-1YRARI	ALL	Medium	0.000000	0.000000	0.000000	0.000000	0.000000	0.000000
HG-NE-1YRARI	ALL	Long	0.000000	0.000000	0.000000	0.000000	0.000000	0.000000
; 
HG-NE-2YRARI	RAINGAGE-9
HG-NE-2YRARI	ALL	Short	0.034000	1.000000	2.000000	0.000000	0.000000	0.000000
HG-NE-2YRARI	ALL	Medium	0.000000	0.000000	0.000000	0.000000	0.000000	0.000000
HG-NE-2YRARI	ALL	Long	0.000000	0.000000	0.000000	0.000000	0.000000	0.000000
; 
HG-NELS-10YRARI	RAINGAGE-9
HG-NELS-10YRARI	ALL	Short	0.081000	1.000000	2.000000	0.000000	0.000000	0.000000
HG-NELS-10YRARI	ALL	Medium	0.000000	0.000000	0.000000	0.000000	0.000000	0.000000
HG-NELS-10YRARI	ALL	Long	0.000000	0.000000	0.000000	0.000000	0.000000	0.000000
; 
HG-NELS-1YRARI	RAINGAGE-9
HG-NELS-1YRARI	ALL	Short	0.060000	1.000000	2.000000	0.000000	0.000000	0.000000
HG-NELS-1YRARI	ALL	Medium	0.000000	0.000000	0.000000	0.000000	0.000000	0.000000
HG-NELS-1YRARI	ALL	Long	0.000000	0.000000	0.000000	0.000000	0.000000	0.000000
; 
HG-NELS-2YRARI	RAINGAGE-9
HG-NELS-2YRARI	ALL	Short	0.065000	1.000000	2.000000	0.000000	0.000000	0.000000
HG-NELS-2YRARI	ALL	Medium	0.000000	0.000000	0.000000	0.000000	0.000000	0.000000
HG-NELS-2YRARI	ALL	Long	0.000000	0.000000	0.000000	0.000000	0.000000	0.000000
; 
HG-REDW-10YR	RAINGAGE-9
HG-REDW-10YR	ALL	Short	0.035000	1.000000	2.000000	0.000000	0.000000	0.000000
HG-REDW-10YR	ALL	Medium	0.000000	0.000000	0.000000	0.000000	0.000000	0.000000
HG-REDW-10YR	ALL	Long	0.000000	0.000000	0.000000	0.000000	0.000000	0.000000
; 
HG-REDW-2YR	RAINGAGE-9
HG-REDW-2YR	ALL	Short	0.025000	1.000000	2.000000	0.000000	0.000000	0.000000
HG-REDW-2YR	ALL	Medium	0.000000	0.000000	0.000000	0.000000	0.000000	0.000000
HG-REDW-2YR	ALL	Long	0.000000	0.000000	0.000000	0.000000	0.000000	0.000000
; 
HG-REN-10YRARI	RAINGAGE-9
HG-REN-10YRARI	ALL	Short	0.008000	1.000000	2.000000	0.000000	0.000000	0.000000
HG-REN-10YRARI	ALL	Medium	0.000000	0.000000	0.000000	0.000000	0.000000	0.000000
HG-REN-10YRARI	ALL	Long	0.000000	0.000000	0.000000	0.000000	0.000000	0.000000
; 
HG-REN-1YRARI	RAINGAGE-9
HG-REN-1YRARI	ALL	Short	0.006000	1.000000	2.000000	0.000000	0.000000	0.000000
HG-REN-1YRARI	ALL	Medium	0.000000	0.000000	0.000000	0.000000	0.000000	0.000000
HG-REN-1YRARI	ALL	Long	0.000000	0.000000	0.000000	0.000000	0.000000	0.000000
; 
HG-REN-2YRARI	RAINGAGE-9
HG-REN-2YRARI	ALL	Short	0.007000	1.000000	2.000000	0.000000	0.000000	0.000000
HG-REN-2YRARI	ALL	Medium	0.000000	0.000000	0.000000	0.000000	0.000000	0.000000
HG-REN-2YRARI	ALL	Long	0.000000	0.000000	0.000000	0.000000	0.000000	0.000000
; 
HG-ROSW-10YR	RAINGAGE-9
HG-ROSW-10YR	ALL	Short	0.040000	1.000000	2.000000	0.000000	0.000000	0.000000
HG-ROSW-10YR	ALL	Medium	0.000000	0.000000	0.000000	0.000000	0.000000	0.000000
HG-ROSW-10YR	ALL	Long	0.000000	0.000000	0.000000	0.000000	0.000000	0.000000
; 
HG-ROSW-1YR	RAINGAGE-9
HG-ROSW-1YR	ALL	Short	0.020000	1.000000	2.000000	0.000000	0.000000	0.000000
HG-ROSW-1YR	ALL	Medium	0.000000	0.000000	0.000000	0.000000	0.000000	0.000000
HG-ROSW-1YR	ALL	Long	0.000000	0.000000	0.000000	0.000000	0.000000	0.000000
; 
HG-ROSW-2YR	RAINGAGE-9
HG-ROSW-2YR	ALL	Short	0.025000	1.000000	2.000000	0.000000	0.000000	0.000000
HG-ROSW-2YR	ALL	Medium	0.000000	0.000000	0.000000	0.000000	0.000000	0.000000
HG-ROSW-2YR	ALL	Long	0.000000	0.000000	0.000000	0.000000	0.000000	0.000000
; 
HG-SCOT-10YR	RAINGAGE-9
HG-SCOT-10YR	ALL	Short	0.035000	1.000000	2.000000	0.000000	0.000000	0.000000
HG-SCOT-10YR	ALL	Medium	0.000000	0.000000	0.000000	0.000000	0.000000	0.000000
HG-SCOT-10YR	ALL	Long	0.000000	0.000000	0.000000	0.000000	0.000000	0.000000
; 
HG-SCOT-1YR	RAINGAGE-9
HG-SCOT-1YR	ALL	Short	0.022000	1.000000	2.000000	0.000000	0.000000	0.000000
HG-SCOT-1YR	ALL	Medium	0.000000	0.000000	0.000000	0.000000	0.000000	0.000000
HG-SCOT-1YR	ALL	Long	0.000000	0.000000	0.000000	0.000000	0.000000	0.000000
; 
HG-SCOT-2YR	RAINGAGE-9
HG-SCOT-2YR	ALL	Short	0.025000	1.000000	2.000000	0.000000	0.000000	0.000000
HG-SCOT-2YR	ALL	Medium	0.000000	0.000000	0.000000	0.000000	0.000000	0.000000
HG-SCOT-2YR	ALL	Long	0.000000	0.000000	0.000000	0.000000	0.000000	0.000000
; 
HG-TPAS-10YR	RAINGAGE-9
HG-TPAS-10YR	ALL	Short	0.048000	1.000000	2.000000	0.000000	0.000000	0.000000
HG-TPAS-10YR	ALL	Medium	0.000000	0.000000	0.000000	0.000000	0.000000	0.000000
HG-TPAS-10YR	ALL	Long	0.000000	0.000000	0.000000	0.000000	0.000000	0.000000
; 
HG-TPAS-1YR	RAINGAGE-9
HG-TPAS-1YR	ALL	Short	0.030000	1.000000	2.000000	0.000000	0.000000	0.000000
HG-TPAS-1YR	ALL	Medium	0.000000	0.000000	0.000000	0.000000	0.000000	0.000000
HG-TPAS-1YR	ALL	Long	0.000000	0.000000	0.000000	0.000000	0.000000	0.000000
; 
HG-TPAS-2YR	RAINGAGE-9
HG-TPAS-2YR	ALL	Short	0.034000	1.000000	2.000000	0.000000	0.000000	0.000000
HG-TPAS-2YR	ALL	Medium	0.000000	0.000000	0.000000	0.000000	0.000000	0.000000
HG-TPAS-2YR	ALL	Long	0.000000	0.000000	0.000000	0.000000	0.000000	0.000000
; 
HG-TWIN-10YR	RAINGAGE-9
HG-TWIN-10YR	ALL	Short	0.048000	1.000000	2.000000	0.000000	0.000000	0.000000
HG-TWIN-10YR	ALL	Medium	0.000000	0.000000	0.000000	0.000000	0.000000	0.000000
HG-TWIN-10YR	ALL	Long	0.000000	0.000000	0.000000	0.000000	0.000000	0.000000
; 
HG-TWIN-2YR	RAINGAGE-9
HG-TWIN-2YR	ALL	Short	0.036000	1.000000	2.000000	0.000000	0.000000	0.000000
HG-TWIN-2YR	ALL	Medium	0.000000	0.000000	0.000000	0.000000	0.000000	0.000000
HG-TWIN-2YR	ALL	Long	0.000000	0.000000	0.000000	0.000000	0.000000	0.000000
; 
HG-TWIT-10YR	RAINGAGE-9
HG-TWIT-10YR	ALL	Short	0.048000	1.000000	2.000000	0.000000	0.000000	0.000000
HG-TWIT-10YR	ALL	Medium	0.000000	0.000000	0.000000	0.000000	0.000000	0.000000
HG-TWIT-10YR	ALL	Long	0.000000	0.000000	0.000000	0.000000	0.000000	0.000000
; 
HG-TWIT-2YR	RAINGAGE-9
HG-TWIT-2YR	ALL	Short	0.036000	1.000000	2.000000	0.000000	0.000000	0.000000
HG-TWIT-2YR	ALL	Medium	0.000000	0.000000	0.000000	0.000000	0.000000	0.000000
HG-TWIT-2YR	ALL	Long	0.000000	0.000000	0.000000	0.000000	0.000000	0.000000
; 
HG-WITH-10YR	RAINGAGE-9
HG-WITH-10YR	ALL	Short	0.022000	1.000000	2.000000	0.000000	0.000000	0.000000
HG-WITH-10YR	ALL	Medium	0.000000	0.000000	0.000000	0.000000	0.000000	0.000000
HG-WITH-10YR	ALL	Long	0.000000	0.000000	0.000000	0.000000	0.000000	0.000000
; 
HG-WITH-1YR	RAINGAGE-9
HG-WITH-1YR	ALL	Short	0.014000	1.000000	2.000000	0.000000	0.000000	0.000000
HG-WITH-1YR	ALL	Medium	0.000000	0.000000	0.000000	0.000000	0.000000	0.000000
HG-WITH-1YR	ALL	Long	0.000000	0.000000	0.000000	0.000000	0.000000	0.000000
; 
HG-WITH-2YR	RAINGAGE-9
HG-WITH-2YR	ALL	Short	0.016000	1.000000	2.000000	0.000000	0.000000	0.000000
HG-WITH-2YR	ALL	Medium	0.000000	0.000000	0.000000	0.000000	0.000000	0.000000
HG-WITH-2YR	ALL	Long	0.000000	0.000000	0.000000	0.000000	0.000000	0.000000
; 
HG-WOODB-10YRARI	RAINGAGE-9
HG-WOODB-10YRARI	ALL	Short	0.048000	1.000000	2.000000	0.000000	0.000000	0.000000
HG-WOODB-10YRARI	ALL	Medium	0.000000	0.000000	0.000000	0.000000	0.000000	0.000000
HG-WOODB-10YRARI	ALL	Long	0.000000	0.000000	0.000000	0.000000	0.000000	0.000000
; 
HG-WOODB-1YRARI	RAINGAGE-9
HG-WOODB-1YRARI	ALL	Short	0.030000	1.000000	2.000000	0.000000	0.000000	0.000000
HG-WOODB-1YRARI	ALL	Medium	0.000000	0.000000	0.000000	0.000000	0.000000	0.000000
HG-WOODB-1YRARI	ALL	Long	0.000000	0.000000	0.000000	0.000000	0.000000	0.000000
; 
HG-WOODB-2YRARI	RAINGAGE-9
HG-WOODB-2YRARI	ALL	Short	0.034000	1.000000	2.000000	0.000000	0.000000	0.000000
HG-WOODB-2YRARI	ALL	Medium	0.000000	0.000000	0.000000	0.000000	0.000000	0.000000
HG-WOODB-2YRARI	ALL	Long	0.000000	0.000000	0.000000	0.000000	0.000000	0.000000
; 
HYDROGRH-GCOLE-10YR-ARI	RAINGAGE-7
HYDROGRH-GCOLE-10YR-ARI	ALL	Short	0.091000	1.000000	2.000000	0.000000	0.000000	0.000000
HYDROGRH-GCOLE-10YR-ARI	ALL	Medium	0.000000	0.000000	0.000000	0.000000	0.000000	0.000000
HYDROGRH-GCOLE-10YR-ARI	ALL	Long	0.000000	0.000000	0.000000	0.000000	0.000000	0.000000
; 
HYDROGRH-GCOLE-1YR-ARI	RAINGAGE-7
HYDROGRH-GCOLE-1YR-ARI	ALL	Short	0.060000	1.000000	2.000000	0.000000	0.000000	0.000000
HYDROGRH-GCOLE-1YR-ARI	ALL	Medium	0.000000	0.000000	0.000000	0.000000	0.000000	0.000000
HYDROGRH-GCOLE-1YR-ARI	ALL	Long	0.000000	0.000000	0.000000	0.000000	0.000000	0.000000
; 
HYDROGRH-GCOLE-2YR-ARI	RAINGAGE-7
HYDROGRH-GCOLE-2YR-ARI	ALL	Short	0.068000	1.000000	2.000000	0.000000	0.000000	0.000000
HYDROGRH-GCOLE-2YR-ARI	ALL	Medium	0.000000	0.000000	0.000000	0.000000	0.000000	0.000000
HYDROGRH-GCOLE-2YR-ARI	ALL	Long	0.000000	0.000000	0.000000	0.000000	0.000000	0.000000
; 
HYDROGRH-GPURK-10YR-ARI	RAINGAGE-5
HYDROGRH-GPURK-10YR-ARI	ALL	Short	0.121000	1.000000	2.000000	0.000000	0.000000	0.000000
HYDROGRH-GPURK-10YR-ARI	ALL	Medium	0.000000	0.000000	0.000000	0.000000	0.000000	0.000000
HYDROGRH-GPURK-10YR-ARI	ALL	Long	0.000000	0.000000	0.000000	0.000000	0.000000	0.000000
; 
HYDROGRH-GPURK-1YR-ARI	RAINGAGE-5
HYDROGRH-GPURK-1YR-ARI	ALL	Short	0.090000	1.000000	2.000000	0.000000	0.000000	0.000000
HYDROGRH-GPURK-1YR-ARI	ALL	Medium	0.000000	0.000000	0.000000	0.000000	0.000000	0.000000
HYDROGRH-GPURK-1YR-ARI	ALL	Long	0.000000	0.000000	0.000000	0.000000	0.000000	0.000000
; 
HYDROGRH-GPURK-2YR-ARI	RAINGAGE-5
HYDROGRH-GPURK-2YR-ARI	ALL	Short	0.098000	1.000000	2.000000	0.000000	0.000000	0.000000
HYDROGRH-GPURK-2YR-ARI	ALL	Medium	0.000000	0.000000	0.000000	0.000000	0.000000	0.000000
HYDROGRH-GPURK-2YR-ARI	ALL	Long	0.000000	0.000000	0.000000	0.000000	0.000000	0.000000
; 
HYDROGRH-MCL-10YR-ARI	RAINGAGE-3
HYDROGRH-MCL-10YR-ARI	ALL	Short	0.087000	1.000000	2.000000	0.000000	0.000000	0.000000
HYDROGRH-MCL-10YR-ARI	ALL	Medium	0.000000	0.000000	0.000000	0.000000	0.000000	0.000000
HYDROGRH-MCL-10YR-ARI	ALL	Long	0.000000	0.000000	0.000000	0.000000	0.000000	0.000000
; 
HYDROGRH-MCL-1YR-ARI	RAINGAGE-3
HYDROGRH-MCL-1YR-ARI	ALL	Short	0.050000	1.000000	2.000000	0.000000	0.000000	0.000000
HYDROGRH-MCL-1YR-ARI	ALL	Medium	0.000000	0.000000	0.000000	0.000000	0.000000	0.000000
HYDROGRH-MCL-1YR-ARI	ALL	Long	0.000000	0.000000	0.000000	0.000000	0.000000	0.000000
; 
HYDROGRH-MCL-2YR-ARI	RAINGAGE-3
HYDROGRH-MCL-2YR-ARI	ALL	Short	0.059000	1.000000	2.000000	0.000000	0.000000	0.000000
HYDROGRH-MCL-2YR-ARI	ALL	Medium	0.000000	0.000000	0.000000	0.000000	0.000000	0.000000
HYDROGRH-MCL-2YR-ARI	ALL	Long	0.000000	0.000000	0.000000	0.000000	0.000000	0.000000

[TEMPERATURE]

[ADJUSTMENTS]

[SUBCATCHMENTS]

[SUBAREAS]

[INFILTRATION]

[AQUIFERS]

[GROUNDWATER]

[GWF]

[SNOWPACKS]

[JUNCTIONS]
1012	26.370000	1.456000	0.000000	0.000000	0.000000
1017	28.470000	1.490000	0.000000	0.000000	0.000000
1026	29.690000	1.240000	0.000000	0.000000	0.000000
1030	23.018000	1.400000	0.000000	0.000000	0.000000
1050	40.800000	1.700000	0.000000	0.000000	0.000000
1056	64.085000	0.970000	0.000000	0.000000	0.000000
1095	51.422000	1.300000	0.000000	0.000000	0.000000
1096	53.302000	1.900000	0.000000	0.000000	0.000000
1097	52.102000	2.000000	0.000000	0.000000	0.000000
1098	55.102000	1.000000	0.000000	0.000000	0.000000
1099	43.792000	1.100000	0.000000	0.000000	0.000000
1100	46.792000	1.100000	0.000000	0.000000	0.000000
1101	49.892000	1.500000	0.000000	0.000000	0.000000
1111	57.812000	1.800000	0.000000	0.000000	0.000000
1112	56.622000	1.400000	0.000000	0.000000	0.000000
1113	57.082000	1.400000	0.000000	0.000000	0.000000
1114	65.852000	1.350000	0.000000	0.000000	0.000000
1115	60.685000	1.100000	0.000000	0.000000	0.000000
1116	54.292000	1.000000	0.000000	0.000000	0.000000
1117	52.962000	1.120000	0.000000	0.000000	0.000000
1118	52.292000	1.120000	0.000000	0.000000	0.000000
1174	27.380000	0.800000	0.000000	0.000000	0.000000
1175	26.600000	1.160000	0.000000	0.000000	0.000000
1176	26.100000	1.170000	0.000000	0.000000	0.000000
1179	41.197000	1.300000	0.000000	0.000000	0.000000
1187	12.400000	1.900000	0.000000	0.000000	0.000000
1191	57.302000	0.900000	0.000000	0.000000	0.000000
1192	54.122000	1.100000	0.000000	0.000000	0.000000
30070	38.390000	1.710000	0.000000	0.000000	0.000000
30071	37.040000	2.330000	0.000000	0.000000	0.000000
30073	33.500000	1.730000	0.000000	0.000000	0.000000
30074	31.700000	1.730000	0.000000	0.000000	0.000000
30080	36.340000	1.170000	0.000000	0.000000	0.000000
30215	31.090000	1.560000	0.000000	0.000000	0.000000
30218	32.850000	1.750000	0.000000	0.000000	0.000000
30402	21.260000	1.722000	0.000000	0.000000	0.000000
30403	21.804000	1.196000	0.000000	0.000000	0.000000
30404	22.405000	1.260000	0.000000	0.000000	0.000000
30779	22.103000	1.589000	0.000000	0.000000	0.000000
35948	30.530000	1.200000	0.000000	0.000000	0.000000
35952	33.239000	1.110000	0.000000	0.000000	0.000000
35961	41.500000	1.708000	0.000000	0.000000	0.000000
35962	41.000000	0.891000	0.000000	0.000000	0.000000
35988	30.430000	1.198000	0.000000	0.000000	0.000000
36035	34.392000	1.109000	0.000000	0.000000	0.000000
36111	38.100000	0.592000	0.000000	0.000000	0.000000
36113	34.476000	2.000000	0.000000	0.000000	0.000000
36127	43.160000	3.000000	0.000000	0.000000	0.000000
36128	46.350000	1.400000	0.000000	0.000000	0.000000
36129	43.570000	2.700000	0.000000	0.000000	0.000000
36130	41.900000	2.100000	0.000000	0.000000	0.000000
36310	30.290000	2.200000	0.000000	0.000000	0.000000
36409	25.440000	1.615000	0.000000	0.000000	0.000000
36520	41.900000	1.681000	0.000000	0.000000	0.000000
36564	25.330000	1.525000	0.000000	0.000000	0.000000
36585	28.620000	1.837000	0.000000	0.000000	0.000000
36921	40.760000	2.830000	0.000000	0.000000	0.000000
; GL~15.737.  SWInv=14.4
39997	14.487000	1.000000	0.000000	0.000000	0.000000
40134	21.160000	1.448000	0.000000	0.000000	0.000000
40404	32.950000	1.750000	0.000000	0.000000	0.000000
40405	33.440000	1.660000	0.000000	0.000000	0.000000
40406	33.730000	2.477000	0.000000	0.000000	0.000000
40573	33.440000	1.660000	0.000000	0.000000	0.000000
40574	33.730000	1.660000	0.000000	0.000000	0.000000
40575	36.320000	1.830000	0.000000	0.000000	0.000000
40576	34.120000	1.946000	0.000000	0.000000	0.000000
40658	44.060000	2.500000	0.000000	0.000000	0.000000
40659	46.220000	1.400000	0.000000	0.000000	0.000000
40660	48.180000	1.700000	0.000000	0.000000	0.000000
40661	49.720000	1.500000	0.000000	0.000000	0.000000
40662	49.390000	2.000000	0.000000	0.000000	0.000000
40667	47.370000	1.200000	0.000000	0.000000	0.000000
40792	20.167000	1.480000	0.000000	0.000000	0.000000
41416	33.234000	1.091000	0.000000	0.000000	0.000000
41419	33.529000	1.890000	0.000000	0.000000	0.000000
41420	34.910000	1.461000	0.000000	0.000000	0.000000
41421	34.059000	2.257000	0.000000	0.000000	0.000000
41427	33.730000	2.000000	0.000000	0.000000	0.000000
42184	35.224000	1.010000	0.000000	0.000000	0.000000
42185	35.290000	0.850000	0.000000	0.000000	0.000000
42186	34.700000	1.660000	0.000000	0.000000	0.000000
42187	34.300000	1.580000	0.000000	0.000000	0.000000
43469	53.820000	1.800000	0.000000	0.000000	0.000000
43470	52.220000	1.700000	0.000000	0.000000	0.000000
43471	49.550000	1.600000	0.000000	0.000000	0.000000
43472	52.660000	1.800000	0.000000	0.000000	0.000000
44250	13.880000	2.100000	0.000000	0.000000	0.000000
45752	21.800000	2.500000	0.000000	0.000000	0.000000
45986	19.551000	1.651000	0.000000	0.000000	0.000000
47336	38.960000	1.540000	0.000000	0.000000	0.000000
47337	39.410000	1.000000	0.000000	0.000000	0.000000
47339	12.200000	2.850000	0.000000	0.000000	0.000000
47340	11.500000	3.600000	0.000000	0.000000	0.000000
47341	12.510000	2.320000	0.000000	0.000000	0.000000
47342	13.000000	1.810000	0.000000	0.000000	0.000000
47343	13.690000	1.000000	0.000000	0.000000	0.000000
47344	13.240000	1.400000	0.000000	0.000000	0.000000
47345	13.650000	1.150000	0.000000	0.000000	0.000000
47346	13.760000	1.090000	0.000000	0.000000	0.000000
47347	12.740000	2.220000	0.000000	0.000000	0.000000
47348	13.070000	1.640000	0.000000	0.000000	0.000000
47349	13.810000	0.880000	0.000000	0.000000	0.000000
47350	13.340000	1.420000	0.000000	0.000000	0.000000
47351	14.040000	1.000000	0.000000	0.000000	0.000000
47352	13.580000	1.180000	0.000000	0.000000	0.000000
48593	44.330000	1.450000	0.000000	0.000000	0.000000
48594	42.430000	1.250000	0.000000	0.000000	0.000000
48596	41.740000	1.590000	0.000000	0.000000	0.000000
48597	41.100000	1.860000	0.000000	0.000000	0.000000
48598	39.910000	1.130000	0.000000	0.000000	0.000000
48599	38.450000	1.180000	0.000000	0.000000	0.000000
48600	38.200000	1.850000	0.000000	0.000000	0.000000
48601	39.020000	1.660000	0.000000	0.000000	0.000000
48604	36.740000	2.540000	0.000000	0.000000	0.000000
48605	36.550000	2.650000	0.000000	0.000000	0.000000
48606	36.060000	2.610000	0.000000	0.000000	0.000000
48607	38.880000	3.370000	0.000000	0.000000	0.000000
48608	39.710000	2.800000	0.000000	0.000000	0.000000
48609	37.390000	1.780000	0.000000	0.000000	0.000000
48610	36.990000	1.830000	0.000000	0.000000	0.000000
48739	44.710000	1.620000	0.000000	0.000000	0.000000