[TITLE]
;;Project Title/Notes

[OPTIONS]
;;Option             Value
FLOW_UNITS           MGD
INFILTRATION         HORTON
FLOW_ROUTING         DYNWAVE
LINK_OFFSETS         DEPTH
MIN_SLOPE            0
ALLOW_PONDING        NO
SKIP_STEADY_STATE    NO

START_DATE           01/01/2002
START_TIME           00:00:00
REPORT_START_DATE    01/01/2002
REPORT_START_TIME    00:00:00
END_DATE             01/01/2002
END_TIME             00:00:00
SWEEP_START          01/01
SWEEP_END            12/31
DRY_DAYS             5.000000
REPORT_STEP          00:05:00
WET_STEP             01:00:00
DRY_STEP             23:00:00
ROUTING_STEP         0:05:00 

INERTIAL_DAMPING     NONE
NORMAL_FLOW_LIMITED  BOTH
FORCE_MAIN_EQUATION  H-W
VARIABLE_STEP        0.75
LENGTHENING_STEP     0
MIN_SURFAREA         0
MAX_TRIALS           0
HEAD_TOLERANCE       0
SYS_FLOW_TOL         5
LAT_FLOW_TOL         5
MINIMUM_STEP         0.5
THREADS              1

[EVAPORATION]
;;Data Source    Parameters
;;-------------- ----------------
CONSTANT         0.0
DRY_ONLY         NO

[JUNCTIONS]
;;Name           Elevation  MaxDepth   InitDepth  SurDepth   Aponded   
;;-------------- ---------- ---------- ---------- ---------- ----------
; Existing Manhole
102              1515.000000 8.000000   0.000000   0.000000   0.000000  
; 0
118              1808.000000 7.000000   0.000000   0.000000   0.000000  
; 0
120              1734.085670 8.914330   0.000000   0.000000   0.000000  
; New Manhole
122              1569.500000 10.500000  0.000000   0.000000   0.000000  
; New Manhole
126              1768.400000 6.600000   0.000000   0.000000   0.000000  
; New Manhole
132              1515.166000 9.834000   0.000000   0.000000   0.000000  
; Existing Manhole
134              1613.750000 19.250000  0.000000   0.000000   0.000000  
; New Manhole
14               1762.061000 9.939000   0.000000   0.000000   0.000000  
; New Manhole
148              1694.900000 15.100000  0.000000   0.000000   0.000000  
; New Manhole
150              1665.000000 20.000000  0.000000   0.000000   0.000000  
; New Manhole
152              1689.900000 12.100000  0.000000   0.000000   0.000000  
; New Manhole
154              1629.000000 19.000000  0.000000   0.000000   0.000000  
; New Manhole
156              1644.000000 8.000000   0.000000   0.000000   0.000000  
; New Manhole
158              1620.063853 19.936147  0.000000   0.000000   0.000000  
; New Manhole
16               1754.753000 11.247000  0.000000   0.000000   0.000000  
; New Manhole
160              1623.568259 18.931741  0.000000   0.000000   0.000000  
; New Manhole
162              1627.452046 20.547954  0.000000   0.000000   0.000000  
; New Manhole
164              1643.608671 16.391329  0.000000   0.000000   0.000000  
; New Manhole
174              1697.280000 20.720000  0.000000   0.000000   0.000000  
; New Manhole
176              1627.330000 12.670000  0.000000   0.000000   0.000000  
; New Manhole
18               1751.588000 12.412000  0.000000   0.000000   0.000000  
; New Manhole
180              1670.578746 9.421254   0.000000   0.000000   0.000000  
; New Manhole
182              1763.400000 6.600000   0.000000   0.000000   0.000000  
; New Manhole
184              1723.925935 13.074065  0.000000   0.000000   0.000000  
; New Manhole
186              1717.853513 14.146487  0.000000   0.000000   0.000000  
; New Manhole
188              1728.074890 10.925110  0.000000   0.000000   0.000000  
; New Manhole
190              1605.870000 215.130000 0.000000   0.000000   0.000000  
; New Manhole
196              1626.000000 12.000000  0.000000   0.000000   0.000000  
; New Manhole
198              1648.000000 20.000000  0.000000   0.000000   0.000000  
; New Manhole
20               1747.184000 12.816000  0.000000   0.000000   0.000000  
; New Manhole
200              1718.000000 6.000000   0.000000   0.000000   0.000000  
; New Manhole
202              1707.458000 12.542000  0.000000   0.000000   0.000000  
; New Manhole
204              1702.498000 16.502000  0.000000   0.000000   0.000000  
; New Manhole
206              1587.900000 8.100000   0.000000   0.000000   0.000000  
; New Manhole
208              1600.000000 8.000000   0.000000   0.000000   0.000000  
; New Manhole
210              1640.100000 7.900000   0.000000   0.000000   0.000000  
; New Manhole
220              1600.000000 8.000000   0.000000   0.000000   0.000000  
; New Manhole
222              1590.000000 8.000000   0.000000   0.000000   0.000000  
; New Manhole
224              1582.000000 8.000000   0.000000   0.000000   0.000000  
; New Manhole
226              1556.000000 8.000000   0.000000   0.000000   0.000000  
; New Manhole
228              1554.274000 9.726000   0.000000   0.000000   0.000000  
; New Manhole
232              1611.900000 7.100000   0.000000   0.000000   0.000000  
; New Manhole
24               1707.333333 20.666667  0.000000   0.000000   0.000000  
; New Manhole
240              1683.333333 20.666667  0.000000   0.000000   0.000000  
; New Manhole
242              1704.630000 4.370000   0.000000   0.000000   0.000000  
; New Manhole
244              1691.800000 11.200000  0.000000   0.000000   0.000000  
; New Manhole
246              1682.000000 16.000000  0.000000   0.000000   0.000000  
; New Manhole
248              1702.433333 20.566667  0.000000   0.000000   0.000000  
; New Manhole
250              1674.333333 20.666667  0.000000   0.000000   0.000000  
; New Manhole
252              1732.000000 3.000000   0.000000   0.000000   0.000000  
; New Manhole
256              1731.433333 20.566667  0.000000   0.000000   0.000000  
; New Manhole
258              1723.433333 20.566667  0.000000   0.000000   0.000000  
; New Manhole
260              1714.333333 23.666667  0.000000   0.000000   0.000000  
; New Manhole
262              1711.433333 20.566667  0.000000   0.000000   0.000000  
; New Manhole
270              1724.000000 8.000000   0.000000   0.000000   0.000000  
; New Manhole
272              1704.500000 13.500000  0.000000   0.000000   0.000000  
; New Manhole
274              1699.095657 14.904343  0.000000   0.000000   0.000000  
; New Manhole
276              1687.500000 12.500000  0.000000   0.000000   0.000000  
; New Manhole
284              1748.333333 7.666667   0.000000   0.000000   0.000000  
; New Manhole
286              1740.150762 9.849238   0.000000   0.000000   0.000000  
; New Manhole
288              1732.898155 12.101845  0.000000   0.000000   0.000000  
; New Manhole
290              1756.245189 7.754811   0.000000   0.000000   0.000000  
; New Manhole
292              1750.669760 9.330240   0.000000   0.000000   0.000000  
; New Manhole
294              1737.733500 12.266500  0.000000   0.000000   0.000000  
; New Manhole
296              1724.916431 3.083569   0.000000   0.000000   0.000000  
; New Manhole
302              1734.433333 20.566667  0.000000   0.000000   0.000000  
; New Manhole
306              1714.433333 20.566667  0.000000   0.000000   0.000000  
; New Manhole
308              1708.333000 2.667000   0.000000   0.000000   0.000000  
; New Manhole
312              1732.333000 2.667000   0.000000   0.000000   0.000000  
313              1712.835960 10.164040  0.000000   0.000000   0.000000  
314              1722.650940 13.349060  0.000000   0.000000   0.000000  
315              1727.766080 12.233920  0.000000   0.000000   0.000000  
318              1726.973584 11.026416  0.000000   0.000000   0.000000  
319              1716.434960 11.565040  0.000000   0.000000   0.000000  
320              1725.708576 11.291424  0.000000   0.000000   0.000000  
321              1727.546864 11.453136  0.000000   0.000000   0.000000  
322              1730.896512 11.103488  0.000000   0.000000   0.000000  
323              1732.540928 8.459072   0.000000   0.000000   0.000000  
324              1738.886896 8.113104   0.000000   0.000000   0.000000  
; New Manhole
50               1710.171738 19.828262  0.000000   0.000000   0.000000  
; New Manhole
52               1689.196000 18.804000  0.000000   0.000000   0.000000  
; New Manhole
54               1655.600000 18.400000  0.000000   0.000000   0.000000  
; New Manhole
58               1656.900000 8.100000   0.000000   0.000000   0.000000  
; New Manhole
62               1580.900000 7.100000   0.000000   0.000000   0.000000  
; New Manhole
64               1567.000000 9.000000   0.000000   0.000000   0.000000  
; New Manhole
66               1564.000000 8.000000   0.000000   0.000000   0.000000  
; New Manhole
68               1560.000000 8.000000   0.000000   0.000000   0.000000  
; New Manhole
70               1556.000000 8.000000   0.000000   0.000000   0.000000  
; New Manhole
72               1552.000000 8.000000   0.000000   0.000000   0.000000  
; New Manhole
74               1548.000000 8.000000   0.000000   0.000000   0.000000  
; New Manhole
86               1529.500000 8.500000   0.000000   0.000000   0.000000  
; New Manhole
88               1524.714000 10.286000  0.000000   0.000000   0.000000  
; New Manhole
90               1519.911000 9.089000   0.000000   0.000000   0.000000  
; Existing Manhole
92               1607.890000 16.110000  0.000000   0.000000   0.000000  
; Existing Manhole
94               1609.740000 18.260000  0.000000   0.000000   0.000000  
; Tuscany LS
98               1525.000000 5.000000   0.000000   1000.000000 0.000000  
; Landwell Interceptor Update
LS-1             1596.000000 24.000000  0.000000   0.000000   0.000000  
; Landwell Interceptor Update
LS-10            1640.300000 14.700000  0.000000   0.000000   0.000000  
; Landwell Interceptor Update
LS-11            1647.000000 10.000000  0.000000   0.000000   0.000000  
; Landwell Interceptor Update
LS-12            1654.800000 10.200000  0.000000   0.000000   0.000000  
; Landwell Interceptor Update
LS-13            1662.000000 13.000000  0.000000   0.000000   0.000000  
; Landwell Interceptor Update
LS-14            1673.200000 12.800000  0.000000   0.000000   0.000000  
; Landwell Interceptor Update
LS-15            1681.600000 15.400000  0.000000   0.000000   0.000000  
; Landwell Interceptor Update
LS-16            1694.250000 14.750000  0.000000   0.000000   0.000000  
; Landwell Interceptor Update
LS-17            1697.000000 14.000000  0.000000   0.000000   0.000000  
; Landwell Interceptor Update
LS-18            1699.200000 13.800000  0.000000   0.000000   0.000000  
; Landwell Interceptor Update
LS-19            1705.500000 18.500000  0.000000   0.000000   0.000000  
; Landwell Interceptor Update
LS-2             1605.870000 15.130000  0.000000   0.000000   0.000000  
; Landwell Interceptor Update
LS-20            1714.400000 12.600000  0.000000   0.000000   0.000000  
; Landwell Interceptor Update
LS-21            1721.300000 14.700000  0.000000   0.000000   0.000000  
; Landwell Interceptor Update
LS-22            1728.500000 16.500000  0.000000   0.000000   0.000000  
; Landwell Interceptor Update
LS-23            1739.000000 13.000000  0.000000   0.000000   0.000000  
; Landwell Interceptor Update
LS-24            1745.950000 17.050000  0.000000   0.000000   0.000000  
; Landwell Interceptor Update
LS-25            1750.800000 22.200000  0.000000   0.000000   0.000000  
; Landwell Interceptor Update
LS-26            1765.000000 15.000000  0.000000   0.000000   0.000000  
; Landwell Interceptor Update
LS-3             1616.600000 7.400000   0.000000   0.000000   0.000000  
; Landwell Interceptor Update
LS-36            1723.530000 13.470000  0.000000   0.000000   0.000000  
; Landwell Interceptor Update
LS-37            1725.430000 17.570000  0.000000   0.000000   0.000000  
; Landwell Interceptor Update
LS-38            1727.160000 19.840000  0.000000   0.000000   0.000000  
; Landwell Interceptor Update
LS-39            1727.550000 18.450000  0.000000   0.000000   0.000000  
; Landwell Interceptor Update
LS-4             1618.700000 9.300000   0.000000   0.000000   0.000000  
; Landwell Interceptor Update
LS-40            1728.840000 16.160000  0.000000   0.000000   0.000000  
; Landwell Interceptor Update
LS-41            1730.120000 6.880000   0.000000   0.000000   0.000000  
; Landwell Interceptor Update
LS-42            1731.690000 8.310000   0.000000   0.000000   0.000000  
; Landwell Interceptor Update
LS-5             1620.800000 8.200000   0.000000   0.000000   0.000000  
; Landwell Interceptor Update
LS-6             1623.300000 13.700000  0.000000   0.000000   0.000000  
; Landwell Interceptor Update
LS-7             1627.000000 17.000000  0.000000   0.000000   0.000000  
; Landwell Interceptor Update
LS-8             1628.700000 21.300000  0.000000   0.000000   0.000000  
; Landwell Interceptor Update
LS-9             1634.200000 13.800000  0.000000   0.000000   0.000000  
; Existing Manhole
WWRF02           1596.000000 12.000000  0.000000   0.000000   0.000000  
; Existing Manhole
WWRF03           1596.000000 10.000000  0.000000   0.000000   0.000000  
; Existing Manhole
WWRF04           1596.000000 15.000000  0.000000   0.000000   0.000000  

[OUTFALLS]
;;Name           Elevation  Type       Stage Data       Gated    Route To        
;;-------------- ---------- ---------- ---------------- -------- ----------------
; Landwell Interceptor Update
138              1604.720000 FREE                        NO                       
; New Manhole
230              1603.000000 FREE                        NO                       
; Influent Pump Station
WWRF_IPS         1596.000000 FREE                        NO                       

[STORAGE]
;;Name           Elev.    MaxDepth   InitDepth  Shape      Curve Name/Params            N/A      Fevap    Psi      Ksat     IMD     
;;-------------- -------- ---------- ----------- ---------- ---------------------------- -------- --------          -------- --------
; Tuscany Lift Station
9002             1498.800000 12.000000  6.100000   FUNCTIONAL 0.000000  0.000000  159.932906 0.000000 0.000000

[CONDUITS]
;;Name           From Node        To Node          Length     Roughness  InOffset   OutOffset  InitFlow   MaxFlow   
;;-------------- ---------------- ---------------- ---------- ---------- ---------- ---------- ---------- ----------
; New Pipe
101              132              102              20.645978  0.013000   0.000000   0.100000   0.000000   0.000000  
; Existing Pipe
105              134              94               1894.302269 0.013000   0.900000   0.000000   0.000000   0.000000  
; Existing Pipe
107              94               92               1851.645257 0.013000   0.000000   0.000000   0.000000   0.000000  
; Existing Pipe
109              92               190              1884.473247 0.013000   0.000000   0.000000   0.000000   0.000000  
; WWRF Pipe
11               LS-1             WWRF02           394.324739 0.013000   0.000000   0.000000   0.000000   0.000000  
; Tuscany LS Forcemain
111              98               134              5394.047136 0.010000   0.000000   0.000000   0.000000   0.000000  
; Existing Pipe
115              102              9002             13.067611  0.013000   0.000000   0.000000   0.000000   0.000000  
; WWRF Pipe
13               WWRF02           WWRF03           596.012032 0.013000   0.000000   0.000000   0.000000   0.000000  
; New Pipe
131              118              126              2338.195220 0.013000   0.000000   0.200000   0.000000   0.000000  
; New Pipe
133              120              188              591.077998 0.013000   0.000000   0.100000   0.000000   0.000000  
; New Pipe
135              122              64               727.239720 0.013000   0.000000   0.100000   0.000000   0.000000  
; Landwell Interceptor Update
136              LS-4             LS-3             327.578122 0.013000   0.000000   0.200000   0.000000   0.000000  
; Landwell Interceptor Update
137              LS-37            LS-36            413.769794 0.013000   0.000000   0.150000   0.000000   0.000000  
; Landwell Interceptor Update
144              LS-42            LS-41            332.881389 0.013000   0.000000   0.150000   0.000000   0.000000  
; Landwell Interceptor Update
145              LS-41            LS-40            265.538287 0.013000   0.000000   0.150000   0.000000   0.000000  
; Landwell Interceptor Update
146              LS-40            LS-39            267.177351 0.013000   0.000000   0.150000   0.000000   0.000000  
; Landwell Interceptor Update
147              LS-39            LS-38            51.832705  0.013000   0.000000   0.150000   0.000000   0.000000  
; Landwell Interceptor Update
148              LS-38            LS-37            365.815525 0.013000   0.000000   0.150000   0.000000   0.000000  
; Landwell Interceptor Update
149              LS-36            LS-21            49.356367  0.013000   0.000000   2.000000   0.000000   0.000000  
; Landwell Interceptor Update
1491             LS-2             138              54.888889  0.013000   9.160000   0.000000   0.000000   0.000000  
; WWRF Pipe
15               WWRF03           WWRF04           575.835281 0.013000   0.000000   0.000000   0.000000   0.000000  
; New Pipe
1501             20               294              1630.589622 0.013000   0.000000   0.100000   0.000000   0.000000  
; New Pipe
1507             150              58               1028.790011 0.013000   0.000000   0.200000   0.000000   0.000000  
; New Pipe
1509             148              152              406.329267 0.013000   0.000000   0.124049   0.000000   0.000000  
; Landwell Interceptor Update
151              LS-3             LS-2             104.718346 0.013000   0.000000   9.360000   0.000000   0.000000  
; New Pipe
1511             152              150              1846.847909 0.013000   0.000000   0.100000   0.000000   0.000000  
; New Pipe
1515             154              94               1171.233973 0.013000   0.000000   0.200000   0.000000   0.000000  
; New Pipe
1517             156              154              1283.266445 0.013000   0.000000   2.167336   0.000000   0.000000  
; New Pipe
1519             164              162              802.831256 0.013000   0.000000   0.100000   0.000000   0.000000  
; Landwell Interceptor Update
152              LS-5             LS-4             346.037551 0.013000   0.000000   0.200000   0.000000   0.000000  
; New Pipe
1521             162              160              189.189377 0.013000   0.000000   0.100000   0.000000   0.000000  
; New Pipe
1523             160              158              320.220268 0.013000   0.000000   0.100000   0.000000   0.000000  
; New Pipe
1525             158              134              265.692670 0.013000   0.000000   1.000000   0.000000   0.000000  
; Landwell Interceptor Update
153              LS-6             LS-5             351.852059 0.013000   0.000000   0.200000   0.000000   0.000000  
; New Pipe
1539             174              52               384.970647 0.013000   0.000000   0.100000   0.000000   0.000000  
; Landwell Interceptor Update
154              LS-7             LS-6             542.446517 0.013000   0.000000   0.200000   0.000000   0.000000  
; New Pipe
1541             176              LS-7             133.332037 0.013000   0.000000   0.200000   0.000000   0.000000  
; New Pipe
1545             180              164              1343.503705 0.013000   0.000000   0.100000   0.000000   0.000000  
; New Pipe
1547             182              14               196.892107 0.013000   0.000000   0.200000   0.000000   0.000000  
; New Pipe
1549             184              186              597.242180 0.013000   0.000000   0.100000   0.000000   0.000000  
; Landwell Interceptor Update
155              LS-8             LS-7             114.689740 0.013000   0.000000   0.500000   0.000000   0.000000  
; New Pipe
1551             186              50               723.860948 0.013000   0.000000   0.100000   0.000000   0.000000  
; New Pipe
1553             188              184              404.895504 0.013000   0.000000   0.100000   0.000000   0.000000  
; Existing Pipe
1555             190              LS-2             173.148082 0.013000   2.020000   0.000000   0.000000   0.000000  
; Landwell Interceptor Update
156              LS-9             LS-8             499.356734 0.013000   0.000000   0.200000   0.000000   0.000000  
; New Pipe
1561             196              232              1546.539217 0.013000   0.000000   0.100000   0.000000   0.000000  
; New Pipe
1563             198              196              1543.100158 0.013000   0.000000   0.100000   0.000000   0.000000  
; New Pipe
1565             200              202              601.535249 0.013000   0.000000   0.200000   0.000000   0.000000  
; New Pipe
1567             202              204              282.717253 0.013000   0.000000   0.100000   0.000000   0.000000  
; New Pipe
1569             204              174              627.340559 0.013000   0.000000   0.100000   0.000000   0.000000  
; Landwell Interceptor Update
157              LS-11            LS-10            399.162301 0.013000   0.000000   0.200000   0.000000   0.000000  
; New Pipe
1571             206              62               924.384365 0.013000   0.000000   0.200000   0.000000   0.000000  
; New Pipe
1573             208              206              2047.541651 0.013000   0.000000   0.200000   0.000000   0.000000  
; New Pipe
1575             58               210              882.575321 0.013000   0.000000   1.100000   0.000000   0.000000  
; Landwell Interceptor Update
158              LS-10            LS-9             482.823789 0.013000   0.000000   0.200000   0.000000   0.000000  
; New Pipe
1581             220              222              657.574665 0.013000   0.000000   0.000000   0.000000   0.000000  
; New Pipe
1583             222              224              513.157174 0.013000   0.000000   0.000000   0.000000   0.000000  
; New Pipe
1585             224              226              1596.117525 0.013000   0.000000   0.000000   0.000000   0.000000  
; New Pipe
1587             226              228              249.877941 0.013000   0.000000   0.200000   0.000000   0.000000  
; New Pipe
1589             228              72               372.345539 0.013000   0.000000   0.000000   0.000000   0.000000  
; Landwell Interceptor Update
159              LS-12            LS-11            453.602793 0.013000   0.000000   0.200000   0.000000   0.000000  
; New Pipe
1591             232              230              207.150000 0.013000   0.000000   0.000000   0.000000   0.000000  
; New Pipe
1593             210              154              127.160000 0.013000   0.000000   2.167336   0.000000   0.000000  
; New Pipe
1599             250              150              410.529665 0.013000   0.100000   0.100000   0.000000   0.000000  
; Landwell Interceptor Update
160              LS-13            LS-12            533.675517 0.013000   0.000000   0.200000   0.000000   0.000000  
; New Pipe
1601             242              244              388.041357 0.013000   0.000000   0.100000   0.000000   0.000000  
; New Pipe
1603             244              246              410.779353 0.013000   0.000000   0.100000   0.000000   0.000000  
; New Pipe
1605             246              250              467.351124 0.013000   0.000000   0.000000   0.000000   0.000000  
; New Pipe
1607             248              240              1116.619490 0.013000   0.000000   0.100000   0.000000   0.000000  
; New Pipe
1609             252              24               684.550225 0.013000   0.000000   0.000000   0.000000   0.000000  
; Landwell Interceptor Update
161              LS-14            LS-13            609.116973 0.013000   0.000000   0.200000   0.000000   0.000000  
; New Pipe
1613             256              258              430.533801 0.013000   0.000000   0.000000   0.000000   0.000000  
; New Pipe
1615             258              260              274.386675 0.013000   0.000000   3.100000   0.000000   0.000000  
; New Pipe
1617             260              306              124.823560 0.013000   3.100000   0.000000   0.000000   0.000000  
; New Pipe
1619             262              24               265.635868 0.013000   0.000000   0.100000   0.000000   0.000000  
; Landwell Interceptor Update
162              LS-15            LS-14            561.566140 0.013000   0.000000   0.200000   0.000000   0.000000  
; New Pipe
1625             270              272              690.865966 0.013000   0.000000   0.100000   0.000000   0.000000  
; New Pipe
1627             272              274              322.749692 0.013000   0.000000   0.104343   0.000000   0.000000  
; New Pipe
1629             274              276              574.195813 0.013000   0.000000   0.685936   0.000000   0.000000  
; Landwell Interceptor Update
163              LS-16            LS-15            558.052652 0.013000   0.000000   0.200000   0.000000   0.000000  
; New Pipe
1631             276              LS-15            336.101900 0.013000   0.000000   0.100000   0.000000   0.000000  
; New Pipe
1635             284              286              404.849710 0.013000   0.000000   0.000000   0.000000   0.000000  
; New Pipe
1637             286              288              415.907350 0.013000   0.099238   0.100000   0.000000   0.000000  
; Landwell Interceptor Update
164              LS-17            LS-16            139.467541 0.013000   0.000000   0.200000   0.000000   0.000000  
; New Pipe
1643             288              LS-39            169.843212 0.013000   0.000000   0.100000   0.000000   0.000000  
; New Pipe
1647             290              292              188.807873 0.013000   0.000000   0.100000   0.000000   0.000000  
; New Pipe
1649             292              LS-24            159.020789 0.013000   0.000000   0.100000   0.000000   0.000000  
; Landwell Interceptor Update
165              LS-18            LS-17            141.047825 0.013000   0.000000   0.200000   0.000000   0.000000  
; New Pipe
1651             294              LS-39            1630.589622 0.013000   0.000000   0.200000   0.000000   0.000000  
; New Pipe
1653             296              148              1745.039945 0.013000   0.000000   0.100000   0.000000   0.000000  
; New Pipe
1655             24               248              432.427051 0.013000   0.100000   0.000000   0.000000   0.000000  
; New Pipe
1657             308              240              745.260000 0.013000   0.000000   0.000000   0.000000   0.000000  
; New Pipe
1659             240              250              465.589204 0.013000   0.100000   0.100000   0.000000   0.000000  
; Landwell Interceptor Update
166              LS-19            LS-18            406.614262 0.013000   0.000000   0.200000   0.000000   0.000000  
; New Pipe
1661             302              256              260.702788 0.013000   0.000000   0.000000   0.000000   0.000000  
; New Pipe
1663             306              262              195.385034 0.013000   0.000000   0.000000   0.000000   0.000000  
; New Pipe
1665             312              260              326.325943 0.013000   0.000000   0.000000   0.000000   0.000000  
; New Pipe
1666             315              314              250.757000 0.013000   0.000000   0.100000   0.000000   0.000000  
; New Pipe
1667             314              313              485.749000 0.013000   0.000000   0.100000   0.000000   0.000000  
; New Pipe
1668             313              148              891.798000 0.013000   0.000000   0.100000   0.000000   0.000000  
; Landwell Interceptor Update
167              LS-20            LS-19            395.511040 0.013000   0.000000   0.200000   0.000000   0.000000  
; New Pipe
1670             318              319              652.414000 0.013000   0.000000   0.100000   0.000000   0.000000  
; New Pipe
1671             319              272              739.685000 0.013000   0.000000   0.100000   0.000000   0.000000  
; New Pipe
1672             324              323              390.373000 0.013000   0.000000   0.100000   0.000000   0.000000  
; New Pipe
1673             323              322              96.526000  0.013000   0.000000   0.100000   0.000000   0.000000  
; New Pipe
1674             322              321              203.103000 0.013000   0.000000   0.100000   0.000000   0.000000  
; New Pipe
1675             321              320              108.643000 0.013000   0.000000   0.100000   0.000000   0.000000  
; New Pipe
1676             320              319              573.351000 0.013000   0.000000   0.100000   0.000000   0.000000  
; Landwell Interceptor Update
168              LS-21            LS-20            565.724932 0.013000   0.000000   0.200000   0.000000   0.000000  
; Landwell Interceptor Update
169              LS-22            LS-21            441.783338 0.013000   0.000000   0.200000   0.000000   0.000000  
; WWRF Pipe
17               WWRF04           WWRF_IPS         327.864500 0.013000   0.000000   0.000000   0.000000   0.000000  
; Landwell Interceptor Update
170              LS-23            LS-22            317.138033 0.013000   0.000000   0.200000   0.000000   0.000000  
; Landwell Interceptor Update
171              LS-24            LS-23            582.972996 0.013000   0.000000   0.200000   0.000000   0.000000  
; Landwell Interceptor Update
172              LS-25            LS-24            545.906896 0.013000   0.000000   0.200000   0.000000   0.000000  
; Landwell Interceptor Update
173              LS-26            LS-25            359.854867 0.013000   0.000000   0.200000   0.000000   0.000000  
; New Pipe
21               126              182              595.277194 0.013000   0.000000   0.200000   0.000000   0.000000  
; New Pipe
23               14               16               1228.243142 0.013000   0.000000   0.200000   0.000000   0.000000  
; New Pipe