[TITLE]
;;Project Title/Notes

[OPTIONS]
;;Option             Value
FLOW_UNITS           CFS
INFILTRATION         GREEN_AMPT
FLOW_ROUTING         DYNWAVE
LINK_OFFSETS         DEPTH
MIN_SLOPE            0
ALLOW_PONDING        YES
SKIP_STEADY_STATE    NO

START_DATE           06/16/2010
START_TIME           00:00:00
REPORT_START_DATE    06/16/2010
REPORT_START_TIME    00:00:00
END_DATE             06/18/2010
END_TIME             00:00:00
SWEEP_START          01/01
SWEEP_END            12/31
DRY_DAYS             0.000000
REPORT_STEP          00:01:30
WET_STEP             00:01:30
DRY_STEP             00:03:00
ROUTING_STEP         0:00:02 

INERTIAL_DAMPING     NONE
NORMAL_FLOW_LIMITED  BOTH
FORCE_MAIN_EQUATION  H-W
VARIABLE_STEP        0.75
LENGTHENING_STEP     2
MIN_SURFAREA         0
MAX_TRIALS           0
HEAD_TOLERANCE       0
SYS_FLOW_TOL         5
LAT_FLOW_TOL         5
MINIMUM_STEP         0.5
THREADS              1

[EVAPORATION]
;;Data Source    Parameters
;;-------------- ----------------
CONSTANT         0.000000
DRY_ONLY         NO

[JUNCTIONS]
;;Name           Elevation  MaxDepth   InitDepth  SurDepth   Aponded   
;;-------------- ---------- ---------- ---------- ---------- ----------
1147433          992.120000 11.610000  0.000000   0.000000   0.000000  
1147436          987.380000 11.190000  0.000000   0.000000   0.000000  
1147439          983.960000 14.440000  0.000000   0.000000   0.000000  
1147443          974.150000 22.280000  0.000000   0.000000   0.000000  
1147444          979.710000 12.340000  0.000000   0.000000   0.000000  
1147445          981.950000 12.430000  0.000000   0.000000   0.000000  
1147450          981.290000 10.730000  0.000000   0.000000   0.000000  
1147453          965.100000 14.350000  0.000000   0.000000   0.000000  
1147456          967.640000 12.230000  0.000000   100.000000 0.000000  
1147458          969.520000 17.670000  0.000000   100.000000 0.000000  
1147459          970.760000 10.890000  0.000000   100.000000 0.000000  
1147462          960.410000 10.120000  0.000000   100.000000 0.000000  
1147463          961.510000 14.870000  0.000000   100.000000 0.000000  
1147466          953.940000 13.130000  0.000000   100.000000 0.000000  
1147467          958.240000 9.270000   0.000000   100.000000 0.000000  
1147469          951.830000 15.980000  0.000000   100.000000 0.000000  
1147472          971.420000 8.170000   0.000000   100.000000 0.000000  
1147607          982.290000 17.640000  0.000000   100.000000 0.000000  
1147615          978.410000 6.430000   0.000000   100.000000 0.000000  
1162401          1025.000000 8.000000   0.000000   0.000000   0.000000  
1162402          1039.970000 11.040000  0.000000   100.000000 0.000000  
1162405          1066.830000 8.690000   0.000000   100.000000 0.000000  
1162406          1051.090000 12.260000  0.000000   100.000000 0.000000  
1162413          1046.400000 8.160000   0.000000   100.000000 0.000000  
1162431          978.450000 7.550000   0.000000   100.000000 0.000000  
1162435          992.120000 8.680000   0.000000   100.000000 0.000000  
1162436          998.590000 9.200000   0.000000   100.000000 0.000000  
1162437          1024.960000 12.160000  0.000000   100.000000 0.000000  
1162439          1035.150000 12.000000  0.000000   100.000000 0.000000  
226435           1061.330000 4.670000   0.000000   100.000000 0.000000  
226448           1058.960000 7.040000   0.000000   100.000000 0.000000  
226451           1059.090000 4.670000   0.000000   100.000000 0.000000  
2265626          998.130000 10.520000  0.000000   0.000000   0.000000  
2265628          999.020000 10.282000  0.000000   0.000000   0.000000  
2265630          999.830000 9.170000   0.000000   0.000000   0.000000  
2265632          1000.320000 9.680000   0.000000   0.000000   0.000000  
2265634          1000.980000 10.380000  0.000000   0.000000   0.000000  
2265636          1001.210000 9.040000   0.000000   0.000000   0.000000  
2265638          1002.500000 8.500000   0.000000   0.000000   0.000000  
2265640          1002.890000 7.460000   0.000000   0.000000   0.000000  
2265647          1003.690000 8.310000   0.000000   0.000000   0.000000  
2265649          1003.500000 8.400000   0.000000   0.000000   0.000000  
2265740          999.990000 9.010000   0.000000   0.000000   0.000000  
2265742          1000.900000 8.100000   0.000000   0.000000   0.000000  
2265744          1001.580000 7.920000   0.000000   0.000000   0.000000  
2265746          1000.800000 8.700000   0.000000   0.000000   0.000000  
2265748          990.000000 13.000000  0.000000   0.000000   0.000000  
2265750          990.500000 13.000000  0.000000   0.000000   0.000000  
2265752          991.000000 13.000000  0.000000   0.000000   0.000000  
2265753          994.810153 13.638345  0.000000   0.000000   0.000000  
2265757          993.500000 9.000000   0.000000   0.000000   0.000000  
2265759          995.000000 9.000000   0.000000   0.000000   0.000000  
2265761          995.000000 9.000000   0.000000   0.000000   0.000000  
226577           1058.750000 6.550000   0.000000   0.000000   0.000000  
226610           1063.020000 4.660000   0.000000   0.000000   0.000000  
226634           1043.740000 4.670000   0.000000   0.000000   0.000000  
226704           1045.380000 4.670000   0.000000   0.000000   0.000000  
226714           1054.410000 4.670000   0.000000   0.000000   0.000000  
226732           1051.180000 4.670000   0.000000   0.000000   0.000000  
226749           1037.000000 4.670000   0.000000   0.000000   0.000000  
226756           1061.330000 4.670000   0.000000   0.000000   0.000000  
226775           1034.880000 4.660000   0.000000   0.000000   0.000000  
226813           1064.220000 7.580000   0.000000   0.000000   0.000000  
226843           1044.180000 4.670000   0.000000   0.000000   0.000000  
226867           1055.330000 4.670000   0.000000   0.000000   0.000000  
226887           1030.220000 3.780000   0.000000   100.000000 0.000000  
226889           1038.900000 4.660000   0.000000   0.000000   0.000000  
226898           1063.330000 4.670000   0.000000   0.000000   0.000000  
226902           1043.000000 9.250000   0.000000   0.000000   0.000000  
226903           1023.900000 8.100000   0.000000   100.000000 0.000000  
226928           1046.280000 21.320000  0.000000   0.000000   0.000000  
226935           1027.950000 4.830000   0.000000   100.000000 0.000000  
226937           1028.850000 13.850000  0.000000   100.000000 0.000000  
226959           1047.520000 4.670000   0.000000   0.000000   0.000000  
226985           1018.900000 9.600000   0.000000   100.000000 0.000000  
227033           1026.400000 12.810000  0.000000   100.000000 0.000000  
227036           1043.010000 4.660000   0.000000   0.000000   0.000000  
227037           1026.240000 9.750000   0.000000   0.000000   0.000000  
227052           1037.700000 4.670000   0.000000   0.000000   0.000000  
227053           1056.340000 4.660000   0.000000   0.000000   0.000000  
227067           1052.710000 4.670000   0.000000   0.000000   0.000000  
227068           1035.000000 16.520000  0.000000   0.000000   0.000000  
227073           1022.170000 16.250000  0.000000   100.000000 0.000000  
227082           1042.410000 19.620000  0.000000   0.000000   0.000000  
227109           1011.940000 17.169860  0.000000   100.000000 0.000000  
227118           1025.830000 6.170000   0.000000   0.000000   0.000000  
227124           1025.890000 5.910000   0.000000   0.000000   0.000000  
227130           1033.400000 19.810000  0.000000   0.000000   0.000000  
227149           1042.010000 4.670000   0.000000   0.000000   0.000000  
227168           1023.850000 4.660000   0.000000   0.000000   0.000000  
227179           1024.350000 4.830000   0.000000   100.000000 0.000000  
227189           1040.320000 21.680000  0.000000   0.000000   0.000000  
227199           1016.550000 4.670000   0.000000   100.000000 0.000000  
227214           1021.920000 6.290000   0.000000   100.000000 0.000000  
227223           1041.790000 11.170000  0.000000   0.000000   0.000000  
227228           1004.650000 8.350000   0.000000   100.000000 0.000000  
227230           1039.580000 4.670000   0.000000   0.000000   0.000000  
227232           1018.040000 4.670000   0.000000   100.000000 0.000000  
227235           1049.040000 4.670000   0.000000   0.000000   0.000000  
227236           1024.160000 4.670000   0.000000   0.000000   0.000000  
227249           1032.480000 21.520000  0.000000   0.000000   0.000000  
227259           1051.090000 18.850000  0.000000   0.000000   0.000000  
227264           1023.170000 4.830000   0.000000   100.000000 0.000000  
227265           1040.340000 7.670000   0.000000   0.000000   0.000000  
227280           1042.620000 4.670000   0.000000   0.000000   0.000000  
227281           1031.800000 7.670000   0.000000   0.000000   0.000000  
227282           1013.680000 4.670000   0.000000   0.000000   0.000000  
227289           1022.600000 4.670000   0.000000   100.000000 0.000000  
227305           1033.410000 14.740000  0.000000   0.000000   0.000000  
227318           1039.310000 4.670000   0.000000   0.000000   0.000000  
227328           1034.800000 23.290000  0.000000   0.000000   0.000000  
227329           1024.050000 4.670000   0.000000   0.000000   0.000000  
227331           1021.380000 11.020000  0.000000   0.000000   0.000000  
227334           999.010000 4.670000   0.000000   100.000000 0.000000  
227346           1010.000000 4.670000   0.000000   100.000000 0.000000  
227362           995.520000 8.480000   0.000000   100.000000 0.000000  
227381           1020.090000 17.150000  0.000000   0.000000   0.000000  
227397           1030.890000 14.760000  0.000000   0.000000   0.000000  
227398           1003.740000 4.660000   0.000000   100.000000 0.000000  
227401           1016.620000 4.660000   0.000000   0.000000   0.000000  
227409           1016.230000 4.660000   0.000000   0.000000   0.000000  
227415           1027.400000 10.100000  0.000000   0.000000   0.000000  
227423           1015.500000 18.500000  0.000000   0.000000   0.000000  
227432           1015.350000 9.580000   0.000000   0.000000   0.000000  
227433           1031.110000 4.660000   0.000000   0.000000   0.000000  
227441           995.430000 13.610000  0.000000   0.000000   0.000000  
227452           1013.900000 4.670000   0.000000   100.000000 0.000000  
227457           1039.720000 4.670000   0.000000   0.000000   0.000000  
227462           1026.190000 4.660000   0.000000   0.000000   0.000000  
227464           1015.390000 15.440000  0.000000   100.000000 0.000000  
227469           1003.670000 4.660000   0.000000   100.000000 0.000000  
227482           1034.410000 4.670000   0.000000   0.000000   0.000000  
227492           1028.990000 10.490000  0.000000   0.000000   0.000000  
227495           1034.040000 17.030000  0.000000   0.000000   0.000000  
227499           1027.560000 15.060000  0.000000   0.000000   0.000000  
227500           1031.420000 5.630000   0.000000   0.000000   0.000000  
227504           996.780000 4.670000   0.000000   100.000000 0.000000  
227512           1022.550000 18.070000  0.000000   0.000000   0.000000  
227521           1016.950000 11.020000  0.000000   0.000000   0.000000  
227531           1008.760000 20.080000  0.000000   0.000000   0.000000  
227532           1027.320000 18.690000  0.000000   0.000000   0.000000  
227542           1026.090000 5.500000   0.000000   0.000000   0.000000  
227553           1011.990000 4.660000   0.000000   100.000000 0.000000  
227558           1015.290000 10.710000  0.000000   100.000000 0.000000  
227564           1008.530000 4.660000   0.000000   0.000000   0.000000  
227579           985.390000 9.110000   0.000000   100.000000 0.000000  
227623           1022.260000 7.100000   0.000000   0.000000   0.000000  
227624           1029.760000 4.670000   0.000000   0.000000   0.000000  
227627           1003.000000 17.700000  0.000000   0.000000   0.000000  
227632           991.370000 4.670000   0.000000   100.000000 0.000000  
227636           1064.360000 9.640000   0.000000   100.000000 0.000000  
227638           1008.230000 4.670000   0.000000   0.000000   0.000000  
227639           1031.210000 4.670000   0.000000   0.000000   0.000000  
227649           1025.520000 19.260000  0.000000   0.000000   0.000000  
227663           1003.190000 17.290000  0.000000   0.000000   0.000000  
227673           993.870000 4.670000   0.000000   100.000000 0.000000  
227679           1039.950000 17.100000  0.000000   0.000000   0.000000  
227688           977.530000 9.470000   0.000000   100.000000 0.000000  
227689           1014.190000 18.440000  0.000000   0.000000   0.000000  
227690           1007.500000 20.430000  0.000000   0.000000   0.000000  
227691           1002.880000 10.300000  0.000000   100.000000 0.000000  
227696           1007.330000 4.670000   0.000000   0.000000   0.000000  
227697           1054.000000 4.000000   0.000000   100.000000 0.000000  
227702           1050.050000 13.420000  0.000000   100.000000 0.000000  
227703           982.080000 13.020000  0.000000   100.000000 0.000000  
227712           1020.180000 9.640000   0.000000   0.000000   0.000000  
227724           1002.610000 4.670000   0.000000   100.000000 0.000000  
227731           1023.300000 13.350000  0.000000   0.000000   0.000000  
227737           1010.540000 4.660000   0.000000   0.000000   0.000000  
227742           1056.000000 5.000000   0.000000   100.000000 0.000000  
227743           1021.830000 19.060000  0.000000   0.000000   0.000000  
227749           1028.510000 9.780000   0.000000   0.000000   0.000000  
227754           993.770000 7.250000   0.000000   100.000000 0.000000  
227762           1016.500000 7.420000   0.000000   0.000000   0.000000  
227767           1025.770000 6.060000   0.000000   0.000000   0.000000  
227807           1016.120000 12.380000  0.000000   0.000000   0.000000  
227808           1041.830000 3.170000   0.000000   100.000000 0.000000  
227816           1028.510000 4.670000   0.000000   0.000000   0.000000  
227820           1036.440000 19.480000  0.000000   0.000000   0.000000  
227830           1006.080000 11.140000  0.000000   0.000000   0.000000  
227835           1011.000000 16.880000  0.000000   0.000000   0.000000  
227845           1011.040000 17.460000  0.000000   0.000000   0.000000  
227851           971.470000 9.530000   0.000000   100.000000 0.000000  
227857           1004.570000 18.760000  0.000000   0.000000   0.000000  
227862           1016.260000 4.670000   0.000000   0.000000   0.000000  
227875           982.920000 4.670000   0.000000   100.000000 0.000000  
227886           1040.910000 12.740000  0.000000   100.000000 0.000000  
227890           1014.460000 20.220000  0.000000   0.000000   0.000000  
227891           1047.080000 8.370000   0.000000   100.000000 0.000000  
227914           1033.900000 8.100000   0.000000   100.000000 0.000000  
227915           1024.790000 9.620000   0.000000   0.000000   0.000000  
227920           990.720000 15.130000  0.000000   0.000000   0.000000  
227930           1027.010000 6.640000   0.000000   0.000000   0.000000  
227937           980.240000 10.150000  0.000000   100.000000 0.000000  
227938           1066.290000 4.670000   0.000000   100.000000 0.000000  
227942           977.060000 10.260000  0.000000   100.000000 0.000000  
227950           969.820000 11.580000  0.000000   100.000000 0.000000  
227959           994.610000 21.040000  0.000000   0.000000   0.000000  
227961           1025.910000 10.590000  0.000000   0.000000   0.000000  
227964           998.600000 22.390000  0.000000   0.000000   0.000000  
227970           994.000000 4.660000   0.000000   0.000000   0.000000  
227972           986.960000 7.590000   0.000000   0.000000   0.000000  
227974           1027.910000 18.980000  0.000000   0.000000   0.000000  
227980           1005.240000 4.660000   0.000000   0.000000   0.000000  
227982           1015.040000 20.960000  0.000000   0.000000   0.000000  
227993           1037.770000 6.980000   0.000000   100.000000 0.000000  
227996           969.070000 10.530000  0.000000   100.000000 0.000000  
227999           1031.140000 4.660000   0.000000   0.000000   0.000000  
228012           1037.870000 9.560000   0.000000   100.000000 0.000000  
228023           983.580000 8.120000   0.000000   0.000000   0.000000  
228030           1023.680000 6.000000   0.000000   100.000000 0.000000  
228040           991.450000 19.080000  0.000000   0.000000   0.000000  
228041           1056.450000 4.670000   0.000000   100.000000 0.000000  
228042           985.070000 15.430000  0.000000   0.000000   0.000000  
228057           978.370000 11.530000  0.000000   100.000000 0.000000  
228063           976.130000 9.230000   0.000000   100.000000 0.000000  
228068           985.100000 10.200000  0.000000   0.000000   0.000000  
228072           986.000000 9.010000   0.000000   0.000000   0.000000  
228077           1030.280000 6.060000   0.000000   100.000000 0.000000  
228078           1029.990000 4.660000   0.000000   0.000000   0.000000  
228079           990.660000 20.440000  0.000000   0.000000   0.000000  
228082           990.320000 4.670000   0.000000   0.000000   0.000000  
228089           1023.550000 10.450000  0.000000   0.000000   0.000000  
228091           966.300000 11.700000  0.000000   100.000000 0.000000  
228100           967.030000 11.170000  0.000000   100.000000 0.000000  
228118           986.750000 8.090000   0.000000   0.000000   0.000000  
228124           1073.040000 6.480000   0.000000   0.000000   0.000000  
228130           1018.290000 4.660000   0.000000   0.000000   0.000000  
228143           1037.080000 10.790000  0.000000   100.000000 0.000000  
228144           1072.510000 5.520000   0.000000   100.000000 0.000000  
228145           1015.950000 16.510000  0.000000   0.000000   0.000000  
228147           971.340000 4.670000   0.000000   100.000000 0.000000  
228148           1030.130000 9.440000   0.000000   100.000000 0.000000  
228149           1004.320000 19.780000  0.000000   0.000000   0.000000  
228150           986.260000 10.140000  0.000000   0.000000   0.000000  
228152           952.600000 17.990000  0.000000   100.000000 0.000000  
228153           991.640000 4.670000   0.000000   0.000000   0.000000  
228157           982.690000 16.210000  0.000000   0.000000   0.000000  
228159           976.000000 5.290000   0.000000   100.000000 0.000000  
228171           985.290000 12.520000  0.000000   0.000000   0.000000  
228174           979.130000 18.870000  0.000000   0.000000   0.000000  
228176           1071.370000 4.100000   0.000000   100.000000 0.000000  
228178           997.640000 11.200000  0.000000   0.000000   0.000000  
228188           958.520000 11.180000  0.000000   100.000000 0.000000  
228199           1070.800000 6.800000   0.000000   100.000000 0.000000  
228208           1035.610000 11.800000  0.000000   100.000000 0.000000  
228209           997.690000 20.770000  0.000000   0.000000   0.000000  
228217           1029.710000 5.460000   0.000000   0.000000   0.000000  
228219           998.320000 8.650000   0.000000   0.000000   0.000000  
228224           1023.360000 7.570000   0.000000   0.000000   0.000000  
228225           980.480000 9.690000   0.000000   0.000000   0.000000  
228236           1080.000000 7.500000   0.000000   0.000000   0.000000  
228240           1032.440000 4.670000   0.000000   0.000000   0.000000  
228245           973.450000 11.680000  0.000000   0.000000   0.000000  
228246           984.960000 22.070000  0.000000   0.000000   0.000000  
228247           983.860000 19.720000  0.000000   0.000000   0.000000  
228249           1070.010000 9.330000   0.000000   100.000000 0.000000  
228250           984.240000 4.670000   0.000000   0.000000   0.000000  
228257           988.490000 13.590000  0.000000   0.000000   0.000000  
228263           1028.100000 4.660000   0.000000   100.000000 0.000000  
228268           973.820000 4.840000   0.000000   100.000000 0.000000  
228273           1017.310000 4.660000   0.000000   0.000000   0.000000  
228275           1029.420000 7.240000   0.000000   0.000000   0.000000  
228284           1008.980000 6.120000   0.000000   100.000000 0.000000  
228287           975.010000 16.690000  0.000000   100.000000 0.000000  
228290           1069.920000 12.080000  0.000000   0.000000   0.000000  
228292           972.560000 7.760000   0.000000   0.000000   0.000000  
228295           1029.360000 5.950000   0.000000   100.000000 0.000000  
228302           951.800000 9.200000   0.000000   100.000000 0.000000  
228304           1023.190000 7.850000   0.000000   100.000000 0.000000  
228307           1009.130000 8.820000   0.000000   0.000000   0.000000  
228309           1029.510000 6.880000   0.000000   0.000000   0.000000  
228310           1007.470000 8.220000   0.000000   100.000000 0.000000  
228316           1080.860000 4.670000   0.000000   0.000000   0.000000  
228321           1006.610000 17.370000  0.000000   0.000000   0.000000  
228326           962.560000 4.670000   0.000000   100.000000 0.000000  
228332           1046.590000 4.660000   0.000000   100.000000 0.000000  
228334           1009.920000 7.400000   0.000000   100.000000 0.000000  
228335           978.850000 17.310000  0.000000   0.000000   0.000000  
228336           976.000000 7.000000   0.000000   100.000000 0.000000  
228338           1026.920000 4.660000   0.000000   0.000000   0.000000  
228342           967.530000 4.840000   0.000000   100.000000 0.000000  
228351           1065.550000 10.450000  0.000000   0.000000   0.000000  
228353           971.240000 7.660000   0.000000   0.000000   0.000000  
228356           947.110000 9.890000   0.000000   100.000000 0.000000  
228359           1034.820000 4.600000   0.000000   0.000000   0.000000  
228360           965.800000 17.620000  0.000000   0.000000   0.000000  
228363           996.560000 15.550000  0.000000   100.000000 0.000000  
228367           998.110000 15.200000  0.000000   0.000000   0.000000  
228380           1037.270000 8.840000   0.000000   0.000000   0.000000  
228382           1037.790000 9.320000   0.000000   0.000000   0.000000  
228391           989.020000 18.980000  0.000000   0.000000   0.000000  
228392           974.690000 4.670000   0.000000   100.000000 0.000000  
228395           1035.760000 7.060000   0.000000   0.000000   0.000000  
228405           1036.350000 6.170000   0.000000   0.000000   0.000000  
228407           963.020000 10.970000  0.000000   100.000000 0.000000  
228408           1017.070000 6.530000   0.000000   0.000000   0.000000  
228410           957.330000 8.960000   0.000000   100.000000 0.000000  
228412           1042.340000 4.660000   0.000000   100.000000 0.000000  
228415           992.590000 17.620000  0.000000   100.000000 0.000000  
228416           1026.780000 5.220000   0.000000   0.000000   0.000000  
228418           1061.410000 11.090000  0.000000   0.000000   0.000000  
228421           986.620000 4.660000   0.000000   0.000000   0.000000  
228424           1002.400000 4.670000   0.000000   0.000000   0.000000  
228425           1008.610000 4.660000   0.000000   100.000000 0.000000  
228436           1012.450000 4.660000   0.000000   100.000000 0.000000  
228444           982.790000 10.100000  0.000000   0.000000   0.000000  
228448           999.980000 11.500000  0.000000   100.000000 0.000000  
228451           946.000000 17.961961  0.000000   100.000000 0.000000  
228464           1050.900000 7.600000   0.000000   0.000000   0.000000  
228465           980.110000 21.150000  0.000000   100.000000 0.000000  
228468           994.720000 17.590000  0.000000   100.000000 0.000000  
228469           1003.100000 15.300000  0.000000   100.000000 0.000000  
228471           969.330000 4.670000   0.000000   100.000000 0.000000  
228472           1021.880000 4.660000   0.000000   0.000000   0.000000  
228474           974.010000 4.670000   0.000000   0.000000   0.000000  
228484           957.080000 9.530000   0.000000   100.000000 0.000000  
228488           1001.580000 16.400000  0.000000   100.000000 0.000000  
228498           1000.910000 16.930000  0.000000   0.000000   0.000000  
228499           1027.340000 10.040000  0.000000   100.000000 0.000000  
228504           983.370000 21.740000  0.000000   0.000000   0.000000  
228507           1001.610000 16.220000  0.000000   100.000000 0.000000  
228508           1025.820000 4.670000   0.000000   0.000000   0.000000  
228513           1037.570000 9.200000   0.000000   100.000000 0.000000  
228515           984.410000 4.670000   0.000000   0.000000   0.000000  
228518           997.120000 17.260000  0.000000   0.000000   0.000000  
228519           1019.700000 6.700000   0.000000   0.000000   0.000000  
228521           1010.590000 7.590000   0.000000   100.000000 0.000000  
228523           1031.730000 4.660000   0.000000   100.000000 0.000000  
228525           984.380000 7.620000   0.000000   0.000000   0.000000  
228527           1052.280000 8.400000   0.000000   0.000000   0.000000  
228534           1066.220000 8.800000   0.000000   0.000000   0.000000  
228535           1031.700000 4.800000   0.000000   100.000000 0.000000  
228544           993.040000 17.880000  0.000000   0.000000   0.000000  
228549           1018.400000 7.600000   0.000000   0.000000   0.000000  
228551           969.090000 11.910000  0.000000   100.000000 0.000000  
228565           1018.300000 6.000000   0.000000   0.000000   0.000000  
228566           998.760000 4.670000   0.000000   0.000000   0.000000  
228572           1045.990000 4.660000   0.000000   0.000000   0.000000  
228580           956.910000 5.090000   0.000000   100.000000 0.000000  
228585           942.750000 24.331824  0.000000   100.000000 0.000000  
228591           994.010000 4.670000   0.000000   0.000000   0.000000  
228604           1026.630000 14.530000  0.000000   100.000000 0.000000  
228607           1048.150000 4.670000   0.000000   0.000000   0.000000  
228612           1041.200000 4.660000   0.000000   0.000000   0.000000  
228615           1026.510000 15.490000  0.000000   0.000000   0.000000  
228626           998.550000 6.150000   0.000000   0.000000   0.000000  
228640           1007.330000 4.670000   0.000000   0.000000   0.000000  
228643           1025.700000 14.450000  0.000000   0.000000   0.000000  
228647           1046.740000 13.150000  0.000000   0.000000   0.000000  
228663           987.940000 12.070000  0.000000   0.000000   0.000000  
228685           1040.770000 4.660000   0.000000   0.000000   0.000000  
228687           959.200000 9.300000   0.000000   100.000000 0.000000  
228689           996.810000 12.450000  0.000000   0.000000   0.000000  
228697           1013.300000 11.630000  0.000000   100.000000 0.000000  
228698           1017.660000 8.730000   0.000000   0.000000   0.000000  
228708           1017.700000 10.300000  0.000000   0.000000   0.000000  
228712           1025.990000 4.670000   0.000000   0.000000   0.000000  
228742           956.650000 5.320000   0.000000   100.000000 0.000000  
228748           1018.300000 13.000000  0.000000   100.000000 0.000000  
228756           1023.900000 13.110000  0.000000   0.000000   0.000000  
228772           993.690000 6.170000   0.000000   0.000000   0.000000  
228785           938.260000 11.740000  0.000000   100.000000 0.000000  
228787           952.010000 9.990000   0.000000   100.000000 0.000000  
228803           1011.380000 4.670000   0.000000   100.000000 0.000000  
228805           995.330000 4.670000   0.000000   0.000000   0.000000  
228808           1021.110000 4.670000   0.000000   100.000000 0.000000  
228810           1025.960000 4.660000   0.000000   0.000000   0.000000  
228832           1046.420000 8.960000   0.000000   0.000000   0.000000  
228834           995.290000 6.270000   0.000000   100.000000 0.000000  
228851           979.210000 4.660000   0.000000   0.000000   0.000000  
228874           950.090000 9.910000   0.000000   100.000000 0.000000  
228879           951.170000 4.830000   0.000000   100.000000 0.000000  
228884           1011.210000 12.200000  0.000000   100.000000 0.000000  
228887           1029.600000 15.400000  0.000000   0.000000   0.000000  
228888           972.000000 6.810000   0.000000   0.000000   0.000000  
228891           1010.490000 4.660000   0.000000   100.000000 0.000000  
228899           1028.500000 14.500000  0.000000   0.000000   0.000000  
228908           1014.190000 4.660000   0.000000   0.000000   0.000000  
228910           1020.450000 8.650000   0.000000   0.000000   0.000000  
228925           998.220000 4.660000   0.000000   100.000000 0.000000  
228928           1028.900000 15.100000  0.000000   0.000000   0.000000  
228936           1028.000000 15.000000  0.000000   0.000000   0.000000  
228937           1029.930000 19.070000  0.000000   0.000000   0.000000  
228940           1001.110000 4.660000   0.000000   100.000000 0.000000  
228951           1028.500000 14.500000  0.000000   0.000000   0.000000  
228952           1027.540000 15.210000  0.000000   100.000000 0.000000  
228963           955.970000 13.270000  0.000000   0.000000   0.000000  
228980           993.770000 4.660000   0.000000   100.000000 0.000000  
228997           930.520000 14.980000  0.000000   100.000000 0.000000  
228998           1004.070000 4.660000   0.000000   0.000000   0.000000  
229004           1037.830000 4.670000   0.000000   0.000000   0.000000  
229008           1022.000000 9.500000   0.000000   100.000000 0.000000  
229011           999.010000 4.670000   0.000000   0.000000   0.000000  
229024           993.330000 4.670000   0.000000   100.000000 0.000000  
229029           944.550000 4.830000   0.000000   100.000000 0.000000  