[TITLE]
;;Project Title/Notes
13-Mile Run Continuous Simulation Model

[OPTIONS]
;;Option             Value
FLOW_UNITS           CFS
INFILTRATION         GREEN_AMPT
FLOW_ROUTING         DYNWAVE
LINK_OFFSETS         ELEVATION
MIN_SLOPE            0
ALLOW_PONDING        NO
SKIP_STEADY_STATE    NO

START_DATE           10/01/1999
START_TIME           00:00:00
REPORT_START_DATE    10/01/1999
REPORT_START_TIME    00:00:00
END_DATE             12/31/2006
END_TIME             23:59:00
SWEEP_START          01/01
SWEEP_END            12/31
DRY_DAYS             0
REPORT_STEP          24:00:00
WET_STEP             00:15:00
DRY_STEP             04:00:00
ROUTING_STEP         0:01:00 

INERTIAL_DAMPING     PARTIAL
NORMAL_FLOW_LIMITED  BOTH
FORCE_MAIN_EQUATION  H-W
VARIABLE_STEP        0.95
LENGTHENING_STEP     30
MIN_SURFAREA         0
MAX_TRIALS           0
HEAD_TOLERANCE       0
SYS_FLOW_TOL         5
LAT_FLOW_TOL         5
MINIMUM_STEP         0.5
THREADS              1

[EVAPORATION]
;;Data Source    Parameters
;;-------------- ----------------
TIMESERIES       Evaporation
DRY_ONLY         NO

[RAINGAGES]
;;Name           Format    Interval SCF      Source    
;;-------------- --------- ------ ------ ----------
;Cypress Creek TMR-5 Raingage
Cyp_Creek_TMR5   VOLUME    1:00     1.0      FILE       "F:\My2015PC\CapPlan\13MILE\Cyp_Creek_TMR5_Rainfall.txt" Cyp_Creek_TMR5 IN   
;Lake Como Raingage
Lake_Como        VOLUME    1:00     1.0      FILE       "F:\My2015PC\CapPlan\13MILE\Lake_Como_Rainfall.txt" Lake_Como  IN   
;Lake Hanna Raingage
Lake_Hanna       VOLUME    1:00     1.0      FILE       "F:\My2015PC\CapPlan\13MILE\Lake_Hanna_Rainfall.txt" Lake_Hanna IN   

[SUBCATCHMENTS]
;;Name           Rain Gage        Outlet           Area     %Imperv  Width    %Slope   CurbLen  SnowPack        
;;-------------- ---------------- ---------------- -------- -------- -------- -------- -------- ----------------
SUB510580        Lake_Hanna       510580           16.14    27.66    314.80   0.2914   0                        
SUB510590        Lake_Hanna       510590           13.33    16.36    305.90   0.8740   0                        
SUB510600        Lake_Hanna       510600           20.86    19.37    453.72   0.5441   0                        
SUB510630        Lake_Hanna       510630           66.51    88.10    1089.00  0.8178   0                        
SUB510640        Lake_Hanna       510640           34.46    29.25    1231.64  0.8076   0                        
SUB510650        Lake_Hanna       510650           357.29   55.84    1056.53  0.2806   0                        
SUB510660        Lake_Hanna       510660           23.78    43.63    116.86   0.0988   0                        
SUB510670        Lake_Hanna       510670           20.30    61.05    119.59   0.0440   0                        
SUB510680        Lake_Hanna       510680           9.87     29.86    149.62   1.2301   0                        
SUB510690        Lake_Hanna       510690           55.80    35.85    1359.37  1.3212   0                        
SUB510700        Lake_Hanna       510700           21.31    57.42    362.59   0.2784   0                        
SUB510730        Lake_Hanna       510730           17.25    26.15    264.96   1.7684   0                        
SUB510745        Lake_Hanna       510745           13.40    56.43    332.56   0.5805   0                        
SUB510750        Lake_Hanna       510750           127.15   38.29    1071.50  0.8001   0                        
SUB510770        Lake_Hanna       510770           102.93   43.17    32.82    0.4938   0                        
SUB510780        Lake_Hanna       510780           75.68    44.62    3422.64  0.9896   0                        
SUB510790        Lake_Hanna       510790           77.00    31.55    978.01   0.7734   0                        
SUB510800        Lake_Hanna       510800           17.62    6.87     645.46   0.4526   0                        
SUB510810        Lake_Hanna       510810           20.36    20.34    596.01   0.9757   0                        
SUB510820        Lake_Hanna       510820           10.43    30.60    394.70   0.5608   0                        
SUB510830        Lake_Hanna       510830           308.88   73.13    1646.58  0.3379   0                        
SUB510840        Lake_Hanna       510840           8.82     62.12    381.73   1.9705   0                        
SUB510860        Lake_Hanna       510860           42.08    38.32    853.46   0.6678   0                        
SUB510870        Lake_Hanna       510870           9.52     38.66    85.73    0.4127   0                        
SUB510880        Lake_Hanna       510880           30.36    17.52    477.26   0.0236   0                        
SUB510890        Lake_Hanna       510890           18.28    28.42    494.03   1.5638   0                        
SUB510900        Lake_Hanna       510900           17.59    18.28    617.94   0.2448   0                        
SUB510910        Lake_Hanna       510910           50.27    36.41    992.38   0.9649   0                        
SUB510930        Lake_Como        510930           137.77   39.38    6681.26  1.0986   0                        
SUB510940        Lake_Hanna       510940           10.71    31.32    480.04   0.9670   0                        
SUB510950        Lake_Como        510950           33.68    15.81    1521.06  0.8546   0                        
SUB510960        Lake_Como        510960           345.62   71.14    9227.72  0.6847   0                        
SUB510980        Lake_Como        510980           6.05     23.94    767.31   2.2113   0                        
SUB510990        Lake_Como        510990           3.91     44.80    411.47   0.1055   0                        
SUB511000        Lake_Como        511000           6.42     63.28    1245.85  6.8687   0                        
SUB511010        Lake_Como        511010           18.25    63.50    860.98   0.5622   0                        
SUB511020        Lake_Como        511020           13.03    70.17    1814.82  1.4024   0                        
SUB511030        Lake_Como        511030           34.86    62.40    2592.77  1.0835   0                        
SUB511040        Lake_Como        511040           3.35     30.00    100.30   0.4110   0                        
SUB511050        Lake_Como        511050           37.44    30.12    1200.38  0.4316   0                        
SUB511060        Lake_Como        511060           10.29    14.33    605.30   0.5790   0                        
SUB511070        Lake_Como        511070           14.73    51.99    800.89   0.2950   0                        
SUB511110        Lake_Como        511110           39.63    52.23    2210.01  0.8382   0                        
SUB511120        Lake_Como        511120           93.06    71.18    2910.67  0.6724   0                        
SUB511130        Lake_Como        511130           27.15    61.39    896.33   0.3696   0                        
SUB511140        Lake_Como        511140           15.33    52.73    234.96   0.2372   0                        
SUB511145        Lake_Como        511145           42.05    57.05    1292.48  0.4277   0                        
SUB511150        Lake_Como        511150           22.58    40.14    597.73   0.2989   0                        
SUB511160        Lake_Como        511160           33.33    44.49    1464.44  0.4510   0                        
SUB511170        Lake_Como        511170           39.85    50.91    674.07   0.3002   0                        
SUB511210        Lake_Como        511210           32.39    72.29    862.60   0.2013   0                        
SUB511230        Lake_Como        511230           73.97    76.91    1896.86  0.5528   0                        
SUB511250        Lake_Como        511250           15.74    43.90    1725.97  1.0136   0                        
SUB511280        Lake_Como        511280           34.80    72.06    776.88   0.4997   0                        
SUB511290        Lake_Como        511290           33.63    29.95    1064.61  0.3945   0                        
SUB511310        Lake_Como        511310           9.27     72.10    1377.42  2.4764   0                        
SUB511320        Lake_Como        511320           132.18   62.53    1851.72  0.3700   0                        
SUB511330        Lake_Como        511330           4.77     100.00   737.47   8.2100   0                        
SUB511340        Lake_Como        511340           11.88    44.75    258.77   0.3700   0                        
SUB511350        Lake_Como        511350           19.06    28.01    170.41   1.3143   0                        
SUB511360        Lake_Como        511360           37.42    46.98    2267.26  2.4240   0                        
SUB511370        Lake_Como        511370           217.57   45.59    2462.09  0.3581   0                        
SUB511390        Lake_Como        511390           47.93    40.68    1499.30  0.7725   0                        
SUB511430        Lake_Como        511430           24.07    81.32    426.25   0.5706   0                        
SUB511440        Lake_Como        511440           2.92     64.60    1390.60  6.7600   0                        
SUB511460        Lake_Como        511460           12.39    54.87    673.91   0.5000   0                        
SUB511470        Lake_Como        511470           11.10    24.32    668.41   0.2451   0                        
SUB511480        Lake_Como        511480           6.61     63.90    442.17   0.7400   0                        
SUB511500        Lake_Como        511500           5.68     67.18    150.15   0.2500   0                        
SUB511510        Lake_Como        511510           524.57   60.11    10092.56 0.3407   0                        
SUB511560        Lake_Como        511560           343.96   44.69    4887.44  0.6355   0                        
SUB511570        Lake_Como        511570           40.76    29.73    805.00   0.3186   0                        
SUB511630        Lake_Como        511630           122.71   54.88    2445.76  0.2169   0                        
SUB511670        Lake_Como        511670           13.45    37.33    580.83   0.4946   0                        
SUB511700        Lake_Como        511700           24.95    54.37    762.13   0.4446   0                        
SUB511710        Lake_Como        511710           3.96     39.04    296.66   0.6868   0                        
SUB511730        Lake_Como        511730           22.56    27.81    2317.32  1.1488   0                        
SUB511740        Lake_Como        511740           275.71   48.68    10953.82 1.0416   0                        
SUB511750        Lake_Como        511750           104.21   36.86    2422.87  0.3607   0                        
SUB511770        Lake_Como        511770           33.35    20.47    1757.84  0.9210   0                        
SUB511780        Lake_Como        511780           18.37    26.44    1242.92  0.6857   0                        
SUB511790        Lake_Como        511790           71.14    23.96    2174.54  0.4162   0                        
SUB511810        Lake_Como        511810           219.48   55.89    5997.81  1.0523   0                        
SUB511820        Lake_Como        511820           16.01    17.57    472.72   0.5028   0                        
SUB511830        Lake_Como        511830           8.64     7.78     417.52   0.8181   0                        
SUB511850        Lake_Como        511850           37.69    54.03    1276.86  0.8143   0                        
SUB511880        Lake_Como        511880           53.80    53.24    2207.10  0.7462   0                        
SUB511910        Lake_Como        511910           16.01    20.00    1539.97  1.3304   0                        
SUB511920        Lake_Como        511920           24.39    48.89    1730.90  1.4195   0                        
SUB511930        Lake_Como        511930           47.30    28.87    1151.91  0.3833   0                        
SUB511950        Lake_Como        511950           188.95   45.60    6904.13  0.5881   0                        
SUB511970        Lake_Como        511970           14.56    0.25     1154.27  0.7327   0                        
SUB512000        Lake_Como        512000           28.95    5.36     1139.10  0.3076   0                        
SUB512020        Lake_Como        512020           38.95    10.75    1424.83  0.7566   0                        
SUB512050        Lake_Como        512050           50.39    46.24    2421.50  0.7357   0                        
SUB512080        Lake_Como        512080           6.00     6.56     349.45   0.4835   0                        
SUB512090        Cyp_Creek_TMR5   512090           354.52   61.63    4561.43  0.4886   0                        
SUB512100        Cyp_Creek_TMR5   512100           16.41    0.11     513.28   0.7689   0                        
SUB512110        Lake_Como        512110           16.75    0.10     500.00   0.0200   0                        
SUB512130        Cyp_Creek_TMR5   512130           49.60    38.48    2434.94  1.1687   0                        
SUB512140        Cyp_Creek_TMR5   512140           66.98    64.75    1202.00  0.4649   0                        
SUB512150        Cyp_Creek_TMR5   512150           8.12     0.00     250.60   0.6534   0                        
SUB512170        Cyp_Creek_TMR5   512170           27.42    48.42    1435.16  0.4848   0                        
SUB512180        Cyp_Creek_TMR5   512180           54.85    50.01    1557.15  0.9087   0                        
SUB512190        Cyp_Creek_TMR5   512190           43.20    62.29    1637.17  0.6862   0                        
SUB512200        Cyp_Creek_TMR5   512200           35.03    27.95    419.73   0.1767   0                        
SUB512210        Cyp_Creek_TMR5   512210           188.12   64.38    12060.39 1.0539   0                        
SUB512230        Cyp_Creek_TMR5   512230           8.80     3.12     208.06   0.5109   0                        
SUB512250        Cyp_Creek_TMR5   512250           20.85    0.21     301.22   0.2539   0                        
SUB512260        Cyp_Creek_TMR5   512260           3.14     7.95     3.08     0.1584   0                        
SUB512270        Cyp_Creek_TMR5   512270           8.04     0.00     792.65   0.9519   0                        
SUB512280        Cyp_Creek_TMR5   512280           14.13    17.00    754.92   1.3879   0                        
SUB512290        Cyp_Creek_TMR5   512290           5.26     0.00     370.37   0.4197   0                        
SUB512330        Cyp_Creek_TMR5   512330           32.02    25.28    1091.85  0.5729   0                        
SUB512340        Cyp_Creek_TMR5   512340           51.17    15.71    2019.81  0.4661   0                        
SUB512350        Cyp_Creek_TMR5   512350           12.38    51.95    769.26   0.4028   0                        
SUB512360        Cyp_Creek_TMR5   512360           35.53    29.83    2217.72  0.8398   0                        
SUB512380        Cyp_Creek_TMR5   512380           38.86    45.65    3725.84  1.7766   0                        
SUB512390        Cyp_Creek_TMR5   512390           110.51   53.30    6081.13  0.5054   0                        
SUB512400        Cyp_Creek_TMR5   512400           74.17    42.81    2665.59  0.7213   0                        
SUB520330        Lake_Hanna       520330           18.67    9.01     625.43   1.2819   0                        
SUB520340        Lake_Hanna       520340           12.62    11.51    454.00   1.1035   0                        
SUB530300        Lake_Hanna       530300           39.50    23.05    929.13   0.5649   0                        
SUB530310        Lake_Hanna       530310           2.35     4.97     279.55   1.6893   0                        
SUB530340        Lake_Hanna       530340           13.90    78.85    1823.00  1.1242   0                        
SUB530350        Lake_Hanna       530350           8.98     45.92    497.18   0.8362   0                        
SUB530360        Lake_Hanna       530360           2.11     7.46     52.07    0.7139   0                        
SUB530370        Lake_Hanna       530370           8.54     31.56    230.78   0.3676   0                        
SUB530380        Lake_Hanna       530380           2.92     42.79    198.20   1.1639   0                        
SUB530400        Lake_Hanna       530400           25.81    0.75     440.23   0.6662   0                        
SUB530420        Lake_Hanna       530420           44.17    36.66    61.34    0.2822   0                        
SUB530430        Lake_Hanna       530430           23.53    31.52    167.52   0.2064   0                        
SUB530440        Lake_Hanna       530440           24.64    35.44    455.56   0.7506   0                        
SUB530450        Lake_Hanna       530450           57.78    59.40    956.73   0.8293   0                        
SUB530460        Lake_Hanna       530460           17.10    28.04    309.71   0.4337   0                        
SUB530470        Lake_Hanna       530470           17.13    23.91    576.68   0.3947   0                        
SUB530480        Lake_Hanna       530480           23.26    5.41     823.58   0.7797   0                        
SUB530490        Lake_Hanna       530490           10.87    19.44    501.16   1.0304   0                        
SUB530500        Lake_Hanna       530500           42.49    30.06    498.98   1.5110   0                        
SUB530510        Lake_Hanna       530510           16.47    30.48    923.52   1.4967   0                        
SUB530520        Lake_Hanna       530520           18.66    34.81    238.84   0.2570   0                        
SUB530530        Lake_Hanna       530530           10.82    34.69    914.40   1.0998   0                        
SUB530540        Lake_Hanna       530540           19.79    16.14    126.96   1.3163   0                        

[SUBAREAS]
;;Subcatchment   N-Imperv   N-Perv     S-Imperv   S-Perv     PctZero    RouteTo    PctRouted 
;;-------------- ---------- ---------- ---------- ---------- ---------- ---------- ----------
SUB510580        0.01       0.15       0.05       0.20       25.00      OUTLET    
SUB510590        0.01       0.21       0.05       0.20       77.30      OUTLET    
SUB510600        0.01       0.18       0.05       0.20       46.17      OUTLET    
SUB510630        0.01       0.23       0.05       0.20       99.89      OUTLET    
SUB510640        0.01       0.23       0.05       0.20       95.19      OUTLET    
SUB510650        0.01       0.25       0.05       0.20       95.05      OUTLET    
SUB510660        0.01       0.16       0.05       0.20       34.66      OUTLET    
SUB510670        0.01       0.16       0.05       0.20       25.00      OUTLET    
SUB510680        0.01       0.21       0.05       0.20       61.16      OUTLET    
SUB510690        0.01       0.50       0.05       0.20       73.48      OUTLET    
SUB510700        0.01       0.22       0.05       0.20       93.19      OUTLET    
SUB510730        0.01       0.30       0.05       0.20       48.59      OUTLET    
SUB510745        0.01       0.24       0.05       0.20       100.00     OUTLET    
SUB510750        0.01       0.19       0.05       0.20       82.31      OUTLET    
SUB510770        0.01       0.22       0.05       0.20       73.99      OUTLET    
SUB510780        0.01       0.15       0.05       0.20       70.40      OUTLET    
SUB510790        0.01       0.34       0.05       0.20       73.16      OUTLET    
SUB510800        0.01       0.29       0.05       0.20       50.70      OUTLET    
SUB510810        0.01       0.41       0.05       0.20       51.25      OUTLET    
SUB510820        0.01       0.15       0.05       0.20       43.30      OUTLET    
SUB510830        0.01       0.19       0.05       0.20       90.47      OUTLET    
SUB510840        0.01       0.15       0.05       0.20       25.00      OUTLET    
SUB510860        0.01       0.15       0.05       0.20       56.25      OUTLET    
SUB510870        0.01       0.15       0.05       0.20       25.00      OUTLET    
SUB510880        0.01       0.20       0.05       0.20       75.28      OUTLET    
SUB510890        0.01       0.31       0.05       0.20       99.18      OUTLET    
SUB510900        0.01       0.18       0.05       0.20       36.05      OUTLET    
SUB510910        0.01       0.19       0.05       0.20       79.80      OUTLET    
SUB510930        0.01       0.23       0.05       0.20       95.64      OUTLET    
SUB510940        0.01       0.15       0.05       0.20       45.19      OUTLET    
SUB510950        0.01       0.24       0.05       0.20       99.15      OUTLET    
SUB510960        0.01       0.17       0.05       0.20       82.43      OUTLET    
SUB510980        0.01       0.24       0.05       0.20       100.00     OUTLET    
SUB510990        0.01       0.23       0.05       0.20       95.67      OUTLET    
SUB511000        0.01       0.24       0.05       0.20       100.00     OUTLET    
SUB511010        0.01       0.15       0.05       0.20       25.00      OUTLET    
SUB511020        0.01       0.32       0.05       0.20       75.01      OUTLET    
SUB511030        0.01       0.38       0.05       0.20       70.74      OUTLET    
SUB511040        0.01       0.15       0.05       0.20       25.00      OUTLET    
SUB511050        0.01       0.18       0.05       0.20       48.46      OUTLET    
SUB511060        0.01       0.22       0.05       0.20       71.14      OUTLET    
SUB511070        0.01       0.15       0.05       0.20       50.82      OUTLET    
SUB511110        0.01       0.16       0.05       0.20       25.00      OUTLET    
SUB511120        0.01       0.30       0.05       0.20       76.98      OUTLET    
SUB511130        0.01       0.16       0.05       0.20       41.08      OUTLET    
SUB511140        0.01       0.17       0.05       0.20       28.94      OUTLET    
SUB511145        0.01       0.16       0.05       0.20       32.27      OUTLET    
SUB511150        0.01       0.15       0.05       0.20       25.00      OUTLET    
SUB511160        0.01       0.24       0.05       0.20       51.47      OUTLET    
SUB511170        0.01       0.15       0.05       0.20       25.00      OUTLET    
SUB511210        0.01       0.15       0.05       0.20       25.00      OUTLET    
SUB511230        0.01       0.15       0.05       0.20       83.15      OUTLET    
SUB511250        0.01       0.17       0.05       0.20       68.82      OUTLET    
SUB511280        0.01       0.15       0.05       0.20       88.65      OUTLET    
SUB511290        0.01       0.15       0.05       0.20       41.53      OUTLET    
SUB511310        0.01       0.30       0.05       0.20       99.78      OUTLET    
SUB511320        0.01       0.19       0.05       0.20       86.32      OUTLET    
SUB511330        0.01       0.01       0.05       0.20       100.00     OUTLET    
SUB511340        0.01       0.15       0.05       0.20       47.44      OUTLET    
SUB511350        0.01       0.17       0.05       0.20       25.00      OUTLET    
SUB511360        0.01       0.17       0.05       0.20       79.71      OUTLET    
SUB511370        0.01       0.19       0.05       0.20       62.46      OUTLET    
SUB511390        0.01       0.18       0.05       0.20       25.00      OUTLET    
SUB511430        0.01       0.15       0.05       0.20       76.74      OUTLET    
SUB511440        0.01       0.17       0.05       0.20       90.81      OUTLET    
SUB511460        0.01       0.43       0.05       0.20       88.10      OUTLET    
SUB511470        0.01       0.15       0.05       0.20       25.00      OUTLET    
SUB511480        0.01       0.39       0.05       0.20       71.00      OUTLET    
SUB511500        0.01       0.15       0.05       0.20       25.00      OUTLET    
SUB511510        0.01       0.18       0.05       0.20       81.24      OUTLET    
SUB511560        0.01       0.18       0.05       0.20       69.89      OUTLET    
SUB511570        0.01       0.17       0.05       0.20       25.00      OUTLET    
SUB511630        0.01       0.15       0.05       0.20       25.00      OUTLET    
SUB511670        0.01       0.15       0.05       0.20       25.00      OUTLET    
SUB511700        0.01       0.15       0.05       0.20       25.00      OUTLET    
SUB511710        0.01       0.15       0.05       0.20       25.00      OUTLET    
SUB511730        0.01       0.15       0.05       0.20       35.09      OUTLET    
SUB511740        0.01       0.16       0.05       0.20       76.06      OUTLET    
SUB511750        0.01       0.15       0.05       0.20       57.86      OUTLET    
SUB511770        0.01       0.15       0.05       0.20       32.94      OUTLET    
SUB511780        0.01       0.15       0.05       0.20       25.00      OUTLET    
SUB511790        0.01       0.23       0.05       0.20       70.43      OUTLET    
SUB511810        0.01       0.16       0.05       0.20       74.63      OUTLET    
SUB511820        0.01       0.17       0.05       0.20       25.00      OUTLET    
SUB511830        0.01       0.23       0.05       0.20       80.73      OUTLET    
SUB511850        0.01       0.15       0.05       0.20       25.00      OUTLET    
SUB511880        0.01       0.18       0.05       0.20       71.73      OUTLET    
SUB511910        0.01       0.23       0.05       0.20       93.80      OUTLET    
SUB511920        0.01       0.15       0.05       0.20       73.90      OUTLET    
SUB511930        0.01       0.17       0.05       0.20       33.47      OUTLET    
SUB511950        0.01       0.22       0.05       0.20       95.09      OUTLET    
SUB511970        0.01       0.24       0.05       0.20       100.00     OUTLET    
SUB512000        0.01       0.24       0.05       0.20       100.00     OUTLET    
SUB512020        0.01       0.22       0.05       0.20       76.80      OUTLET    
SUB512050        0.01       0.23       0.05       0.20       97.79      OUTLET    
SUB512080        0.01       0.23       0.05       0.20       82.70      OUTLET    
SUB512090        0.01       0.18       0.05       0.20       86.58      OUTLET    
SUB512100        0.01       0.24       0.05       0.20       25.00      OUTLET    
SUB512110        0.01       0.24       0.05       0.20       25.00      OUTLET    
SUB512130        0.01       0.24       0.05       0.20       100.00     OUTLET    
SUB512140        0.01       0.31       0.05       0.20       98.13      OUTLET    
SUB512150        0.01       0.24       0.05       0.20       25.00      OUTLET    
SUB512170        0.01       0.19       0.05       0.20       92.26      OUTLET    
SUB512180        0.01       0.15       0.05       0.20       75.11      OUTLET    
SUB512190        0.01       0.17       0.05       0.20       73.85      OUTLET    
SUB512200        0.01       0.17       0.05       0.20       25.00      OUTLET    
SUB512210        0.01       0.23       0.05       0.20       91.48      OUTLET    
SUB512230        0.01       0.24       0.05       0.20       100.00     OUTLET    
SUB512250        0.01       0.24       0.05       0.20       100.00     OUTLET    
SUB512260        0.01       0.24       0.05       0.20       100.00     OUTLET    
SUB512270        0.01       0.24       0.05       0.20       25.00      OUTLET    
SUB512280        0.01       0.24       0.05       0.20       100.00     OUTLET    
SUB512290        0.01       0.31       0.05       0.20       25.00      OUTLET    
SUB512330        0.01       0.24       0.05       0.20       99.38      OUTLET    
SUB512340        0.01       0.20       0.05       0.20       25.00      OUTLET    
SUB512350        0.01       0.18       0.05       0.20       86.50      OUTLET    
SUB512360        0.01       0.27       0.05       0.20       76.35      OUTLET    
SUB512380        0.01       0.31       0.05       0.20       83.53      OUTLET    
SUB512390        0.01       0.31       0.05       0.20       97.27      OUTLET    
SUB512400        0.01       0.37       0.05       0.20       94.18      OUTLET    
SUB520330        0.01       0.32       0.05       0.20       31.21      OUTLET    
SUB520340        0.01       0.20       0.05       0.20       51.79      OUTLET    
SUB530300        0.01       0.20       0.05       0.20       70.37      OUTLET    
SUB530310        0.01       0.20       0.05       0.20       25.00      OUTLET    
SUB530340        0.01       0.18       0.05       0.20       97.16      OUTLET    
SUB530350        0.01       0.15       0.05       0.20       73.08      OUTLET    
SUB530360        0.01       0.19       0.05       0.20       25.00      OUTLET    
SUB530370        0.01       0.15       0.05       0.20       46.56      OUTLET    
SUB530380        0.01       0.18       0.05       0.20       83.89      OUTLET    
SUB530400        0.01       0.23       0.05       0.20       25.00      OUTLET    
SUB530420        0.01       0.20       0.05       0.20       91.71      OUTLET    
SUB530430        0.01       0.21       0.05       0.20       92.74      OUTLET    
SUB530440        0.01       0.22       0.05       0.20       95.90      OUTLET    
SUB530450        0.01       0.16       0.05       0.20       85.95      OUTLET    
SUB530460        0.01       0.15       0.05       0.20       35.87      OUTLET    
SUB530470        0.01       0.19       0.05       0.20       56.68      OUTLET    
SUB530480        0.01       0.23       0.05       0.20       81.80      OUTLET    
SUB530490        0.01       0.23       0.05       0.20       93.94      OUTLET    
SUB530500        0.01       0.21       0.05       0.20       83.96      OUTLET    
SUB530510        0.01       0.20       0.05       0.20       87.61      OUTLET    
SUB530520        0.01       0.22       0.05       0.20       92.48      OUTLET    