[OPTIONS]
;Option and Files Scenario Set: BASE, Base Simulation Options
FLOW_UNITS	CFS
INFILTRATION	HORTON
FLOW_ROUTING	DYNWAVE
ALLOW_PONDING	YES
DRY_DAYS	5.000000
SKIP_STEADY_STATE 	NO
IGNORE_RAINFALL	NO
IGNORE_SNOWMELT	NO
IGNORE_GROUNDWATER	NO
IGNORE_QUALITY	NO
FORCE_MAIN_EQUATION	H-W
LINK_OFFSETS	DEPTH
MIN_SLOPE	0.000000
START_DATE	01/01/2002
START_TIME	00:00
END_DATE	01/01/2002
END_TIME	06:00
REPORT_START_DATE	01/01/2002
REPORT_START_TIME	00:00
SWEEP_START	01/01
SWEEP_END	12/31
WET_STEP	00:05:00
DRY_STEP	01:00:00
ROUTING_STEP	300
REPORT_STEP	00:05:00
INERTIAL_DAMPING	NONE
VARIABLE_STEP	0.750000
MINIMUM_STEP	0.000000
LENGTHENING_STEP	0
MIN_SURFAREA	0.000000
NORMAL_FLOW_LIMITED	SLOPE
MAX_TRIALS	4
HEAD_TOLERANCE	0.005000

[FILES]

[RAINGAGES]
RAIN	VOLUME	1.000000	1.000000	FILE	"C:\Users\dickinre\Desktop\1000_years_rainfall.dat"	USER	IN

[HYDROGRAPHS]
; 
MYRTK	RAIN
MYRTK	ALL	Short	0.010000	1.000000	1.000000	0.100000	1.000000	0.000000
MYRTK	ALL	Medium	0.010000	2.000000	2.000000	0.100000	1.000000	0.000000
MYRTK	ALL	Long	0.010000	5.000000	5.000000	0.100000	1.000000	0.000000

[EVAPORATION]
MONTHLY	0.100000	0.100000	0.100000	0.150000	0.200000	0.300000	0.191000	0.300000	0.200000	0.100000	0.050000	0.050000
DRY_ONLY	YES
RECOVERY	SOIL

[TEMPERATURE]

[ADJUSTMENTS]

[SUBCATCHMENTS]

[SUBAREAS]

[INFILTRATION]

[AQUIFERS]
MONROVIA	0.500000	0.150000	0.300000	10.000000	5.000000	15.000000	0.350000	0.350000	0.002000	0.000000	0.000000	0.250000

[GROUNDWATER]
MYSUBCATCHMENT	MONROVIA	LONGTERMDETENTION	5.000000	0.100000	1.000000	0.100000	1.000000	0.000000	1.000000	1.000000	0.000000	1.000000	0.250000

[GWF]
MYSUBCATCHMENT  DEEP	Ksat*Hgw/Hsw

[SNOWPACKS]

[JUNCTIONS]
; New Junction
JCT-10	0.000000	0.000000	0.000000	0.000000	0.000000
; New Junction
JCT-100	732.560000	7.340000	0.000000	0.000000	0.000000
; New Junction
JCT-1008	0.000000	0.000000	0.000000	0.000000	0.000000
; New Junction
JCT-1012	0.000000	0.000000	0.000000	0.000000	0.000000
; New Junction
JCT-102	728.020000	10.000000	0.000000	0.000000	0.000000
; New Junction
JCT-1024	0.000000	0.000000	0.000000	0.000000	0.000000
; New Junction
JCT-1034	715.500000	7.000000	0.000000	0.000000	0.000000
; New Junction
JCT-1038	0.000000	0.000000	0.000000	0.000000	0.000000
; New Junction
JCT-1042	0.000000	0.000000	0.000000	0.000000	0.000000
; New Junction
JCT-1044	0.000000	0.000000	0.000000	0.000000	0.000000
; New Junction
JCT-1046	0.000000	0.000000	0.000000	0.000000	0.000000
; New Junction
JCT-1048	0.000000	0.000000	0.000000	0.000000	0.000000
; New Junction
JCT-1050	788.380000	14.120000	0.000000	0.000000	0.000000
; New Junction
JCT-1052	0.000000	0.000000	0.000000	0.000000	0.000000
; New Junction
JCT-1054	0.000000	0.000000	0.000000	0.000000	0.000000
; New Junction
JCT-1064	0.000000	0.000000	0.000000	0.000000	0.000000
; New Junction
JCT-1070	0.000000	0.000000	0.000000	0.000000	0.000000
; New Junction
JCT-108	0.000000	0.000000	0.000000	0.000000	0.000000
; New Junction
JCT-110	0.000000	0.000000	0.000000	0.000000	0.000000
; New Junction
JCT-112	0.000000	0.000000	0.000000	0.000000	0.000000
; New Junction
JCT-114	0.000000	0.000000	0.000000	0.000000	0.000000
; New Junction
JCT-116	696.860000	6.350000	0.000000	0.000000	0.000000
; New Junction
JCT-118	696.590000	6.350000	0.000000	0.000000	0.000000
; New Junction
JCT-1180	0.000000	0.000000	0.000000	0.000000	0.000000
; New Junction
JCT-12	0.000000	0.000000	0.000000	0.000000	0.000000
; New Junction
JCT-120	0.000000	0.000000	0.000000	0.000000	0.000000
; New Junction
JCT-1204	0.000000	0.000000	0.000000	0.000000	0.000000
; New Junction
JCT-1208	725.530000	5.550000	0.000000	0.000000	0.000000
; New Junction
JCT-1228	0.000000	0.000000	0.000000	0.000000	0.000000
; New Junction
JCT-130	754.970000	4.750000	0.000000	0.000000	0.000000
; New Junction
JCT-1312	0.000000	0.000000	0.000000	0.000000	0.000000
; New Junction
JCT-1316	705.160000	8.230000	0.000000	0.000000	0.000000
; New Junction
JCT-1318	699.200000	8.500000	0.000000	0.000000	0.000000
; New Junction
JCT-132	0.000000	0.000000	0.000000	0.000000	0.000000
; New Junction
JCT-1332	692.460000	8.600000	0.000000	0.000000	0.000000
; New Junction
JCT-1334	703.190000	5.480000	0.000000	0.000000	0.000000
; New Junction
JCT-1338	698.820000	13.220000	0.000000	0.000000	0.000000
; New Junction
JCT-134	0.000000	0.000000	0.000000	0.000000	0.000000
; New Junction
JCT-1352	0.000000	0.000000	0.000000	0.000000	0.000000
; New Junction
JCT-138	0.000000	0.000000	0.000000	0.000000	0.000000
; New Junction
JCT-14	0.000000	0.000000	0.000000	0.000000	0.000000
; New Junction
JCT-1400	0.000000	0.000000	0.000000	0.000000	0.000000
; New Junction
JCT-1402	0.000000	0.000000	0.000000	0.000000	0.000000
; New Junction
JCT-1404	0.000000	0.000000	0.000000	0.000000	0.000000
; New Junction
JCT-1406	695.400000	0.000000	0.000000	0.000000	0.000000
; New Junction
JCT-1408	0.000000	0.000000	0.000000	0.000000	0.000000
; New Junction
JCT-1410	0.000000	0.000000	0.000000	0.000000	0.000000
; New Junction
JCT-1412	0.000000	0.000000	0.000000	0.000000	0.000000
; New Junction
JCT-1414	0.000000	0.000000	0.000000	0.000000	0.000000
; New Junction
JCT-1416	747.780000	7.670000	0.000000	0.000000	0.000000
; New Junction
JCT-1444	720.000000	2.060000	0.000000	0.000000	0.000000
; New Junction
JCT-1456	0.000000	0.000000	0.000000	0.000000	0.000000
; New Junction
JCT-1464	0.000000	0.000000	0.000000	0.000000	0.000000
; New Junction
JCT-1466	0.000000	0.000000	0.000000	0.000000	0.000000
; New Junction
JCT-150	691.900000	6.550000	0.000000	0.000000	0.000000
; New Junction
JCT-154	704.860000	5.260000	0.000000	0.000000	0.000000
; New Junction
JCT-1556	0.000000	0.000000	0.000000	0.000000	0.000000
; New Junction
JCT-1560	700.990000	0.000000	0.000000	0.000000	0.000000
; New Junction
JCT-1562	712.050000	10.450000	0.000000	0.000000	0.000000
; New Junction
JCT-1568	719.700000	4.850000	0.000000	0.000000	0.000000
; New Junction
JCT-1570	713.520000	9.500000	0.000000	0.000000	0.000000
; New Junction
JCT-158	707.250000	5.150000	0.000000	0.000000	0.000000
; New Junction
JCT-1582	794.660000	4.650000	0.000000	0.000000	0.000000
; New Junction
JCT-1592	0.000000	0.000000	0.000000	0.000000	0.000000
; New Junction
JCT-1596	0.000000	0.000000	0.000000	0.000000	0.000000
; New Junction
JCT-1598	0.000000	0.000000	0.000000	0.000000	0.000000
; New Junction
JCT-16	0.000000	0.000000	0.000000	0.000000	0.000000
; New Junction
JCT-1600	0.000000	0.000000	0.000000	0.000000	0.000000
; New Junction
JCT-1604	0.000000	0.000000	0.000000	0.000000	0.000000
; New Junction
JCT-1606	0.000000	0.000000	0.000000	0.000000	0.000000
; New Junction
JCT-1608	0.000000	0.000000	0.000000	0.000000	0.000000
; New Junction
JCT-1610	0.000000	0.000000	0.000000	0.000000	0.000000
; New Junction
JCT-1612	756.820000	6.600000	0.000000	0.000000	0.000000
; New Junction
JCT-1614	757.470000	3.000000	0.000000	0.000000	0.000000
; New Junction
JCT-1618	714.480000	0.000000	0.000000	0.000000	0.000000
; New Junction
JCT-162	706.790000	5.810000	0.000000	0.000000	0.000000
; New Junction
JCT-1620	723.410000	8.520000	0.000000	0.000000	0.000000
; New Junction
JCT-1630	749.460000	7.840000	0.000000	0.000000	0.000000
; New Junction
JCT-1642	0.000000	0.000000	0.000000	0.000000	0.000000
; New Junction
JCT-166	707.730000	3.770000	0.000000	0.000000	0.000000
; New Junction
JCT-1662	778.500000	0.000000	0.000000	0.000000	0.000000
; New Junction
JCT-178	0.000000	0.000000	0.000000	0.000000	0.000000
; New Junction
JCT-1780	734.770000	9.130000	0.000000	0.000000	0.000000
; New Junction
JCT-1788	704.000000	0.000000	0.000000	0.000000	0.000000
; New Junction
JCT-1796	0.000000	0.000000	0.000000	0.000000	0.000000
; New Junction
JCT-18	0.000000	0.000000	0.000000	0.000000	0.000000
; New Junction
JCT-1800	0.000000	0.000000	0.000000	0.000000	0.000000
; New Junction
JCT-1804	0.000000	0.000000	0.000000	0.000000	0.000000
; New Junction
JCT-1806	0.000000	0.000000	0.000000	0.000000	0.000000
; New Junction
JCT-1816	782.350000	4.500000	0.000000	0.000000	0.000000
; New Junction
JCT-1820	0.000000	0.000000	0.000000	0.000000	0.000000
; New Junction
JCT-1824	739.640000	8.750000	0.000000	0.000000	0.000000
; New Junction
JCT-1828	0.000000	0.000000	0.000000	0.000000	0.000000
; New Junction
JCT-1832	712.700000	6.000000	0.000000	0.000000	0.000000
; New Junction
JCT-1836	0.000000	0.000000	0.000000	0.000000	0.000000
; New Junction
JCT-1844	698.700000	0.000000	0.000000	0.000000	0.000000
; New Junction
JCT-1874	0.000000	0.000000	0.000000	0.000000	0.000000
; New Junction
JCT-188	735.390000	5.710000	0.000000	0.000000	0.000000
; New Junction
JCT-1902	0.000000	0.000000	0.000000	0.000000	0.000000
; New Junction
JCT-192	731.550000	5.880000	0.000000	0.000000	0.000000
; New Junction
JCT-1956	736.200000	10.000000	0.000000	0.000000	0.000000
; New Junction
JCT-196	780.100000	0.000000	0.000000	0.000000	0.000000
; New Junction
JCT-1964	0.000000	0.000000	0.000000	0.000000	0.000000
; New Junction
JCT-1966	0.000000	0.000000	0.000000	0.000000	0.000000
; New Junction
JCT-1968	0.000000	0.000000	0.000000	0.000000	0.000000
; New Junction
JCT-1994	0.000000	0.000000	0.000000	0.000000	0.000000
; New Junction
JCT-1996	735.690000	0.000000	0.000000	0.000000	0.000000
; New Junction
JCT-200	694.440000	9.130000	0.000000	0.000000	0.000000
; New Junction
JCT-2016	0.000000	0.000000	0.000000	0.000000	0.000000
; New Junction
JCT-202	695.450000	6.550000	0.000000	0.000000	0.000000
; New Junction
JCT-2022	740.600000	6.000000	0.000000	0.000000	0.000000
; New Junction
JCT-2024	734.020000	0.000000	0.000000	0.000000	0.000000
; New Junction
JCT-2028	0.000000	0.000000	0.000000	0.000000	0.000000
; New Junction
JCT-2030	0.000000	0.000000	0.000000	0.000000	0.000000
; New Junction
JCT-2038	0.000000	0.000000	0.000000	0.000000	0.000000
; New Junction
JCT-2040	0.000000	0.000000	0.000000	0.000000	0.000000
; New Junction
JCT-2044	0.000000	0.000000	0.000000	0.000000	0.000000
; New Junction
JCT-2048	0.000000	0.000000	0.000000	0.000000	0.000000
; New Junction
JCT-2052	0.000000	0.000000	0.000000	0.000000	0.000000
; New Junction
JCT-2054	0.000000	0.000000	0.000000	0.000000	0.000000
; New Junction
JCT-2056	0.000000	0.000000	0.000000	0.000000	0.000000
; New Junction
JCT-2058	0.000000	0.000000	0.000000	0.000000	0.000000
; New Junction
JCT-2060	0.000000	0.000000	0.000000	0.000000	0.000000
; New Junction
JCT-2062	0.000000	0.000000	0.000000	0.000000	0.000000
; New Junction
JCT-2064	0.000000	0.000000	0.000000	0.000000	0.000000
; New Junction
JCT-2066	0.000000	0.000000	0.000000	0.000000	0.000000
; New Junction
JCT-2068	0.000000	0.000000	0.000000	0.000000	0.000000
; New Junction
JCT-2070	0.000000	0.000000	0.000000	0.000000	0.000000
; New Junction
JCT-2072	0.000000	0.000000	0.000000	0.000000	0.000000
; New Junction
JCT-2074	0.000000	0.000000	0.000000	0.000000	0.000000
; New Junction
JCT-2076	0.000000	0.000000	0.000000	0.000000	0.000000
; New Junction
JCT-2078	0.000000	0.000000	0.000000	0.000000	0.000000
; New Junction
JCT-2080	0.000000	0.000000	0.000000	0.000000	0.000000
; New Junction
JCT-2082	0.000000	0.000000	0.000000	0.000000	0.000000
; New Junction
JCT-210	701.770000	5.300000	0.000000	0.000000	0.000000
; New Junction
JCT-2108	847.260000	8.380000	0.000000	0.000000	0.000000
; New Junction
JCT-2110	0.000000	0.000000	0.000000	0.000000	0.000000
; New Junction
JCT-2112	0.000000	0.000000	0.000000	0.000000	0.000000
; New Junction
JCT-2130	0.000000	0.000000	0.000000	0.000000	0.000000
; New Junction
JCT-2132	826.180000	12.000000	0.000000	0.000000	0.000000
; New Junction
JCT-2134	0.000000	0.000000	0.000000	0.000000	0.000000
; New Junction
JCT-2136	0.000000	0.000000	0.000000	0.000000	0.000000
; New Junction
JCT-214	0.000000	0.000000	0.000000	0.000000	0.000000
; New Junction
JCT-2140	829.480000	10.000000	0.000000	0.000000	0.000000
; New Junction
JCT-2144	828.940000	9.740000	0.000000	0.000000	0.000000
; New Junction
JCT-2146	0.000000	0.000000	0.000000	0.000000	0.000000
; New Junction
JCT-2158	0.000000	0.000000	0.000000	0.000000	0.000000
; New Junction
JCT-216	0.000000	0.000000	0.000000	0.000000	0.000000
; New Junction
JCT-2162	0.000000	0.000000	0.000000	0.000000	0.000000
; New Junction
JCT-2164	0.000000	0.000000	0.000000	0.000000	0.000000
; New Junction
JCT-2166	0.000000	0.000000	0.000000	0.000000	0.000000
; New Junction
JCT-2176	692.800000	6.550000	0.000000	0.000000	0.000000
; New Junction
JCT-2178	0.000000	0.000000	0.000000	0.000000	0.000000
; New Junction
JCT-218	0.000000	0.000000	0.000000	0.000000	0.000000
; New Junction
JCT-2180	0.000000	0.000000	0.000000	0.000000	0.000000
; New Junction
JCT-2182	0.000000	0.000000	0.000000	0.000000	0.000000
; New Junction
JCT-2184	0.000000	0.000000	0.000000	0.000000	0.000000
; New Junction
JCT-2188	0.000000	0.000000	0.000000	0.000000	0.000000
; New Junction
JCT-2194	0.000000	0.000000	0.000000	0.000000	0.000000
; New Junction
JCT-2196	0.000000	0.000000	0.000000	0.000000	0.000000
; New Junction
JCT-2198	0.000000	0.000000	0.000000	0.000000	0.000000
; New Junction
JCT-220	0.000000	0.000000	0.000000	0.000000	0.000000
; New Junction
JCT-2200	0.000000	0.000000	0.000000	0.000000	0.000000
; New Junction
JCT-2202	0.000000	0.000000	0.000000	0.000000	0.000000
; New Junction
JCT-2204	0.000000	0.000000	0.000000	0.000000	0.000000
; New Junction
JCT-2206	0.000000	0.000000	0.000000	0.000000	0.000000
; New Junction
JCT-2210	0.000000	0.000000	0.000000	0.000000	0.000000
; New Junction
JCT-2214	0.000000	0.000000	0.000000	0.000000	0.000000
; New Junction
JCT-2218	0.000000	0.000000	0.000000	0.000000	0.000000
; New Junction
JCT-222	0.000000	0.000000	0.000000	0.000000	0.000000
; New Junction
JCT-2222	0.000000	0.000000	0.000000	0.000000	0.000000
; New Junction
JCT-2224	692.090000	5.460000	0.000000	0.000000	0.000000
; New Junction
JCT-2226	692.560000	5.710000	0.000000	0.000000	0.000000
; New Junction
JCT-2232	690.520000	7.660000	0.000000	0.000000	0.000000
; New Junction
JCT-2234	690.140000	8.780000	0.000000	0.000000	0.000000
; New Junction
JCT-224	0.000000	0.000000	0.000000	0.000000	0.000000
; New Junction
JCT-2244	693.460000	5.000000	0.000000	0.000000	0.000000
; New Junction
JCT-2250	689.330000	9.430000	0.000000	0.000000	0.000000
; New Junction
JCT-2254	0.000000	0.000000	0.000000	0.000000	0.000000
; New Junction
JCT-226	0.000000	0.000000	0.000000	0.000000	0.000000
; New Junction
JCT-2266	740.190000	0.000000	0.000000	0.000000	0.000000
; New Junction
JCT-228	0.000000	0.000000	0.000000	0.000000	0.000000
; New Junction
JCT-2300	0.000000	0.000000	0.000000	0.000000	0.000000
; New Junction
JCT-2302	0.000000	0.000000	0.000000	0.000000	0.000000
; New Junction
JCT-2304	0.000000	0.000000	0.000000	0.000000	0.000000
; New Junction
JCT-2306	0.000000	0.000000	0.000000	0.000000	0.000000
; New Junction
JCT-2308	0.000000	0.000000	0.000000	0.000000	0.000000
; New Junction
JCT-2310	0.000000	0.000000	0.000000	0.000000	0.000000
; New Junction
JCT-232	696.110000	13.340000	0.000000	0.000000	0.000000
; New Junction
JCT-2320	692.850000	0.000000	0.000000	0.000000	0.000000
; New Junction
JCT-2324	698.220000	5.950000	0.000000	0.000000	0.000000
; New Junction
JCT-2338	694.180000	0.000000	0.000000	0.000000	0.000000
; New Junction
JCT-234	693.410000	15.420000	0.000000	0.000000	0.000000
; New Junction
JCT-2342	707.050000	0.000000	0.000000	0.000000	0.000000
; New Junction
JCT-2344	732.750000	6.750000	0.000000	0.000000	0.000000
; New Junction
JCT-2350	0.000000	0.000000	0.000000	0.000000	0.000000
; New Junction
JCT-2352	0.000000	0.000000	0.000000	0.000000	0.000000
; New Junction
JCT-2354	0.000000	0.000000	0.000000	0.000000	0.000000
; New Junction
JCT-2356	0.000000	0.000000	0.000000	0.000000	0.000000
; New Junction
JCT-2358	0.000000	0.000000	0.000000	0.000000	0.000000
; New Junction
JCT-236	714.490000	9.440000	0.000000	0.000000	0.000000
; New Junction
JCT-2360	0.000000	0.000000	0.000000	0.000000	0.000000
; New Junction
JCT-2362	0.000000	0.000000	0.000000	0.000000	0.000000
; New Junction
JCT-2364	0.000000	0.000000	0.000000	0.000000	0.000000
; New Junction
JCT-2368	0.000000	0.000000	0.000000	0.000000	0.000000
; New Junction
JCT-2372	0.000000	0.000000	0.000000	0.000000	0.000000
; New Junction
JCT-2376	703.230000	6.570000	0.000000	0.000000	0.000000
; New Junction
JCT-238	719.010000	11.190000	0.000000	0.000000	0.000000
; New Junction
JCT-2382	700.420000	10.720000	0.000000	0.000000	0.000000
; New Junction
JCT-2408	798.200000	7.600000	0.000000	0.000000	0.000000
; New Junction
JCT-2412	797.580000	7.420000	0.000000	0.000000	0.000000
; New Junction
JCT-2442	712.000000	6.540000	0.000000	0.000000	0.000000
; New Junction
JCT-2444	702.420000	6.580000	0.000000	0.000000	0.000000
; New Junction
JCT-2446	694.000000	12.350000	0.000000	0.000000	0.000000
; New Junction
JCT-2448	712.000000	6.220000	0.000000	0.000000	0.000000
; New Junction
JCT-2450	698.000000	11.300000	0.000000	0.000000	0.000000
; New Junction
JCT-2452	709.000000	6.320000	0.000000	0.000000	0.000000
; New Junction
JCT-2454	689.140000	10.750000	0.000000	0.000000	0.000000
; New Junction
JCT-2458	700.170000	8.600000	0.000000	0.000000	0.000000
; New Junction
JCT-2460	703.740000	7.000000	0.000000	0.000000	0.000000
; New Junction
JCT-2462	695.910000	10.420000	0.000000	0.000000	0.000000
; New Junction
JCT-2464	699.000000	9.120000	0.000000	0.000000	0.000000
; New Junction
JCT-2466	694.970000	9.770000	0.000000	0.000000	0.000000
; New Junction
JCT-2468	695.850000	5.340000	0.000000	0.000000	0.000000
; New Junction
JCT-2470	0.000000	0.000000	0.000000	0.000000	0.000000
; New Junction
JCT-2474	0.000000	0.000000	0.000000	0.000000	0.000000
; New Junction
JCT-2476	0.000000	0.000000	0.000000	0.000000	0.000000
; New Junction
JCT-2478	0.000000	0.000000	0.000000	0.000000	0.000000
; New Junction
JCT-2480	0.000000	0.000000	0.000000	0.000000	0.000000
; New Junction
JCT-2486	0.000000	0.000000	0.000000	0.000000	0.000000
; New Junction
JCT-2488	0.000000	0.000000	0.000000	0.000000	0.000000
; New Junction
JCT-2490	0.000000	0.000000	0.000000	0.000000	0.000000
; New Junction
JCT-2492	0.000000	0.000000	0.000000	0.000000	0.000000
; New Junction
JCT-2494	0.000000	0.000000	0.000000	0.000000	0.000000
; New Junction
JCT-2496	0.000000	0.000000	0.000000	0.000000	0.000000
; New Junction
JCT-2500	729.000000	4.000000	0.000000	0.000000	0.000000
; New Junction
JCT-2502	749.850000	13.020000	0.000000	0.000000	0.000000
; New Junction
JCT-2504	752.180000	11.900000	0.000000	0.000000	0.000000
; New Junction
JCT-2508	783.120000	0.000000	0.000000	0.000000	0.000000
; New Junction
JCT-2514	843.790000	9.650000	0.000000	0.000000	0.000000
; New Junction
JCT-2516	846.320000	9.320000	0.000000	0.000000	0.000000
; New Junction
JCT-2518	0.000000	0.000000	0.000000	0.000000	0.000000
; New Junction
JCT-2524	690.950000	7.500000	0.000000	0.000000	0.000000
; New Junction
JCT-2534	0.000000	0.000000	0.000000	0.000000	0.000000
; New Junction
JCT-2536	0.000000	0.000000	0.000000	0.000000	0.000000
; New Junction
JCT-2538	0.000000	0.000000	0.000000	0.000000	0.000000
; New Junction
JCT-2540	0.000000	0.000000	0.000000	0.000000	0.000000
; New Junction
JCT-2542	0.000000	0.000000	0.000000	0.000000	0.000000
; New Junction
JCT-2544	0.000000	0.000000	0.000000	0.000000	0.000000
; New Junction
JCT-2546	0.000000	0.000000	0.000000	0.000000	0.000000
; New Junction
JCT-2548	0.000000	0.000000	0.000000	0.000000	0.000000
; New Junction
JCT-2550	0.000000	0.000000	0.000000	0.000000	0.000000
; New Junction
JCT-2552	0.000000	0.000000	0.000000	0.000000	0.000000
; New Junction
JCT-2554	0.000000	0.000000	0.000000	0.000000	0.000000
; New Junction
JCT-2556	0.000000	0.000000	0.000000	0.000000	0.000000
; New Junction
JCT-2558	0.000000	0.000000	0.000000	0.000000	0.000000
; New Junction
JCT-2560	0.000000	0.000000	0.000000	0.000000	0.000000
; New Junction
JCT-2562	0.000000	0.000000	0.000000	0.000000	0.000000
; New Junction
JCT-2564	0.000000	0.000000	0.000000	0.000000	0.000000
; New Junction
JCT-2566	0.000000	0.000000	0.000000	0.000000	0.000000
; New Junction
JCT-2568	0.000000	0.000000	0.000000	0.000000	0.000000
; New Junction
JCT-2570	0.000000	0.000000	0.000000	0.000000	0.000000
; New Junction
JCT-2572	0.000000	0.000000	0.000000	0.000000	0.000000
; New Junction
JCT-2574	0.000000	0.000000	0.000000	0.000000	0.000000
; New Junction
JCT-2576	0.000000	0.000000	0.000000	0.000000	0.000000
; New Junction
JCT-2578	0.000000	0.000000	0.000000	0.000000	0.000000
; New Junction
JCT-2580	754.710000	6.290000	0.000000	0.000000	0.000000
; New Junction
JCT-2594	0.000000	0.000000	0.000000	0.000000	0.000000
; New Junction
JCT-2598	0.000000	0.000000	0.000000	0.000000	0.000000
; New Junction
JCT-2600	0.000000	0.000000	0.000000	0.000000	0.000000
; New Junction
JCT-2602	0.000000	0.000000	0.000000	0.000000	0.000000
; New Junction
JCT-2606	0.000000	0.000000	0.000000	0.000000	0.000000
; New Junction
JCT-2610	0.000000	0.000000	0.000000	0.000000	0.000000
; New Junction
JCT-2612	0.000000	0.000000	0.000000	0.000000	0.000000
; New Junction
JCT-2614	0.000000	0.000000	0.000000	0.000000	0.000000
; New Junction
JCT-2618	0.000000	0.000000	0.000000	0.000000	0.000000
; New Junction
JCT-2620	0.000000	0.000000	0.000000	0.000000	0.000000
; New Junction
JCT-2626	702.470000	7.130000	0.000000	0.000000	0.000000
; New Junction
JCT-2628	697.320000	12.210000	0.000000	0.000000	0.000000
; New Junction
JCT-2632	0.000000	0.000000	0.000000	0.000000	0.000000
; New Junction
JCT-2636	752.920000	4.280000	0.000000	0.000000	0.000000
; New Junction
JCT-2644	752.590000	4.310000	0.000000	0.000000	0.000000
; New Junction
JCT-2648	753.330000	5.670000	0.000000	0.000000	0.000000
; New Junction
JCT-2652	755.250000	6.050000	0.000000	0.000000	0.000000
; New Junction
JCT-2656	742.410000	0.000000	0.000000	0.000000	0.000000
; New Junction
JCT-2658	0.000000	0.000000	0.000000	0.000000	0.000000
; New Junction
JCT-2662	0.000000	0.000000	0.000000	0.000000	0.000000
; New Junction
JCT-2666	0.000000	0.000000	0.000000	0.000000	0.000000
; New Junction
JCT-2668	0.000000	0.000000	0.000000	0.000000	0.000000
; New Junction
JCT-2684	694.710000	3.390000	0.000000	0.000000	0.000000
; New Junction
JCT-2690	0.000000	0.000000	0.000000	0.000000	0.000000
; New Junction
JCT-2692	0.000000	0.000000	0.000000	0.000000	0.000000
; New Junction
JCT-2694	0.000000	0.000000	0.000000	0.000000	0.000000
; New Junction
JCT-2696	0.000000	0.000000	0.000000	0.000000	0.000000
; New Junction
JCT-2698	0.000000	0.000000	0.000000	0.000000	0.000000
; New Junction
JCT-2700	0.000000	0.000000	0.000000	0.000000	0.000000
; New Junction
JCT-2702	0.000000	0.000000	0.000000	0.000000	0.000000
; New Junction
JCT-2704	0.000000	0.000000	0.000000	0.000000	0.000000
; New Junction
JCT-2706	0.000000	0.000000	0.000000	0.000000	0.000000
; New Junction
JCT-2708	0.000000	0.000000	0.000000	0.000000	0.000000
; New Junction
JCT-2710	0.000000	0.000000	0.000000	0.000000	0.000000
; New Junction
JCT-2712	0.000000	0.000000	0.000000	0.000000	0.000000
; New Junction
JCT-2726	0.000000	0.000000	0.000000	0.000000	0.000000
; New Junction
JCT-2728	0.000000	0.000000	0.000000	0.000000	0.000000
; New Junction
JCT-2730	0.000000	0.000000	0.000000	0.000000	0.000000
; New Junction
JCT-2732	0.000000	0.000000	0.000000	0.000000	0.000000
; New Junction
JCT-2734	0.000000	0.000000	0.000000	0.000000	0.000000
; New Junction
JCT-2736	0.000000	0.000000	0.000000	0.000000	0.000000
; New Junction
JCT-2738	0.000000	0.000000	0.000000	0.000000	0.000000
; New Junction
JCT-2740	0.000000	0.000000	0.000000	0.000000	0.000000
; New Junction
JCT-2744	782.810000	4.210000	0.000000	0.000000	0.000000
; New Junction
JCT-2750	779.660000	4.920000	0.000000	0.000000	0.000000
; New Junction
JCT-2762	759.000000	12.690000	0.000000	0.000000	0.000000
; New Junction
JCT-2766	741.470000	14.330000	0.000000	0.000000	0.000000
; New Junction
JCT-2772	826.570000	11.640000	0.000000	0.000000	0.000000
; New Junction
JCT-2774	827.080000	0.000000	0.000000	0.000000	0.000000
; New Junction
JCT-2776	828.500000	11.190000	0.000000	0.000000	0.000000
; New Junction
JCT-2778	828.500000	12.410000	0.000000	0.000000	0.000000
; New Junction
JCT-2780	835.800000	5.850000	0.000000	0.000000	0.000000
; New Junction
JCT-2782	828.030000	12.190000	0.000000	0.000000	0.000000
; New Junction
JCT-2784	836.830000	7.120000	0.000000	0.000000	0.000000
; New Junction
JCT-2786	827.680000	11.880000	0.000000	0.000000	0.000000
; New Junction
JCT-2788	826.610000	0.000000	0.000000	0.000000	0.000000
; New Junction
JCT-2790	828.120000	12.090000	0.000000	0.000000	0.000000
; New Junction
JCT-2792	830.050000	12.240000	0.000000	0.000000	0.000000
; New Junction
JCT-2796	832.960000	10.560000	0.000000	0.000000	0.000000
; New Junction
JCT-2802	832.680000	7.730000	0.000000	0.000000	0.000000
; New Junction
JCT-2832	0.000000	0.000000	0.000000	0.000000	0.000000
; New Junction
JCT-2836	0.000000	0.000000	0.000000	0.000000	0.000000
; New Junction
JCT-2840	0.000000	0.000000	0.000000	0.000000	0.000000
; New Junction
JCT-2842	0.000000	0.000000	0.000000	0.000000	0.000000
; New Junction
JCT-2844	0.000000	0.000000	0.000000	0.000000	0.000000
; New Junction
JCT-2846	0.000000	0.000000	0.000000	0.000000	0.000000
; New Junction
JCT-2848	0.000000	0.000000	0.000000	0.000000	0.000000
; New Junction
JCT-2850	0.000000	0.000000	0.000000	0.000000	0.000000
; New Junction
JCT-2852	0.000000	0.000000	0.000000	0.000000	0.000000
; New Junction
JCT-2854	708.300000	0.000000	0.000000	0.000000	0.000000
; New Junction
JCT-2858	0.000000	0.000000	0.000000	0.000000	0.000000
; New Junction
JCT-2862	704.960000	5.890000	0.000000	0.000000	0.000000
; New Junction
JCT-2864	0.000000	0.000000	0.000000	0.000000	0.000000
; New Junction
JCT-2870	0.000000	0.000000	0.000000	0.000000	0.000000
; New Junction
JCT-2872	0.000000	0.000000	0.000000	0.000000	0.000000
; New Junction
JCT-2874	0.000000	0.000000	0.000000	0.000000	0.000000
; New Junction
JCT-2876	0.000000	0.000000	0.000000	0.000000	0.000000
; New Junction
JCT-2878	695.020000	0.000000	0.000000	0.000000	0.000000
; New Junction
JCT-2880	696.080000	6.210000	0.000000	0.000000	0.000000
; New Junction
JCT-2884	0.000000	0.000000	0.000000	0.000000	0.000000
; New Junction
JCT-2894	0.000000	0.000000	0.000000	0.000000	0.000000
; New Junction
JCT-2896	0.000000	0.000000	0.000000	0.000000	0.000000
; New Junction
JCT-2900	0.000000	0.000000	0.000000	0.000000	0.000000
; New Junction
JCT-2904	0.000000	0.000000	0.000000	0.000000	0.000000
; New Junction
JCT-2908	698.650000	11.250000	0.000000	0.000000	0.000000
; New Junction
JCT-2910	700.860000	0.000000	0.000000	0.000000	0.000000
; New Junction
JCT-2912	699.170000	0.000000	0.000000	0.000000	0.000000
; New Junction
JCT-2914	700.540000	0.000000	0.000000	0.000000	0.000000
; New Junction
JCT-2916	699.390000	0.000000	0.000000	0.000000	0.000000
; New Junction
JCT-2958	0.000000	0.000000	0.000000	0.000000	0.000000
; New Junction
JCT-2960	0.000000	0.000000	0.000000	0.000000	0.000000
; New Junction
JCT-2962	694.230000	4.300000	0.000000	0.000000	0.000000
; New Junction
JCT-2964	0.000000	0.000000	0.000000	0.000000	0.000000
; New Junction
JCT-2968	0.000000	0.000000	0.000000	0.000000	0.000000
; New Junction
JCT-2972	0.000000	0.000000	0.000000	0.000000	0.000000
; New Junction
JCT-2974	691.360000	11.390000	0.000000	0.000000	0.000000
; New Junction
JCT-2976	696.500000	4.500000	0.000000	0.000000	0.000000
; New Junction
JCT-2978	0.000000	0.000000	0.000000	0.000000	0.000000
; New Junction
JCT-2980	695.600000	5.720000	0.000000	0.000000	0.000000
; New Junction
JCT-2986	692.700000	11.310000	0.000000	0.000000	0.000000
; New Junction
JCT-2988	695.690000	5.520000	0.000000	0.000000	0.000000
; New Junction
JCT-2990	699.060000	5.160000	0.000000	0.000000	0.000000
; New Junction
JCT-2992	0.000000	0.000000	0.000000	0.000000	0.000000
; New Junction
JCT-2994	0.000000	0.000000	0.000000	0.000000	0.000000
; New Junction
JCT-2996	0.000000	0.000000	0.000000	0.000000	0.000000
; New Junction
JCT-2998	694.430000	10.240000	0.000000	0.000000	0.000000
; New Junction
JCT-3000	692.000000	9.510000	0.000000	0.000000	0.000000
; New Junction
JCT-3002	696.750000	3.040000	0.000000	0.000000	0.000000
; New Junction
JCT-3004	0.000000	0.000000	0.000000	0.000000	0.000000
; New Junction
JCT-3006	0.000000	0.000000	0.000000	0.000000	0.000000
; New Junction
JCT-3010	740.750000	14.250000	0.000000	0.000000	0.000000
; New Junction
JCT-3012	0.000000	0.000000	0.000000	0.000000	0.000000
; New Junction
JCT-3014	692.410000	5.590000	0.000000	0.000000	0.000000
; New Junction
JCT-3018	693.530000	5.220000	0.000000	0.000000	0.000000
; New Junction
JCT-3038	0.000000	0.000000	0.000000	0.000000	0.000000
; New Junction
JCT-3040	698.300000	0.000000	0.000000	0.000000	0.000000
; New Junction
JCT-3044	696.910000	0.000000	0.000000	0.000000	0.000000
; New Junction
JCT-3048	0.000000	0.000000	0.000000	0.000000	0.000000
; New Junction
JCT-3050	705.000000	0.000000	0.000000	0.000000	0.000000
; New Junction
JCT-3054	702.170000	10.130000	0.000000	0.000000	0.000000
; New Junction
JCT-3056	0.000000	0.000000	0.000000	0.000000	0.000000
; New Junction
JCT-3058	0.000000	0.000000	0.000000	0.000000	0.000000
; New Junction
JCT-3060	0.000000	0.000000	0.000000	0.000000	0.000000
; New Junction
JCT-3062	0.000000	0.000000	0.000000	0.000000	0.000000
; New Junction
JCT-3068	0.000000	0.000000	0.000000	0.000000	0.000000
; New Junction
JCT-3072	702.210000	7.000000	0.000000	0.000000	0.000000
; New Junction
JCT-3074	705.270000	6.380000	0.000000	0.000000	0.000000
; New Junction
JCT-3076	699.620000	17.490000	0.000000	0.000000	0.000000
; New Junction
JCT-3078	706.670000	13.190000	0.000000	0.000000	0.000000
; New Junction
JCT-3080	704.960000	16.630000	0.000000	0.000000	0.000000
; New Junction
JCT-3082	0.000000	0.000000	0.000000	0.000000	0.000000
; New Junction
JCT-3084	0.000000	0.000000	0.000000	0.000000	0.000000
; New Junction
JCT-3086	0.000000	0.000000	0.000000	0.000000	0.000000
; New Junction
JCT-3088	0.000000	0.000000	0.000000	0.000000	0.000000
; New Junction
JCT-3090	0.000000	0.000000	0.000000	0.000000	0.000000
; New Junction
JCT-3092	0.000000	0.000000	0.000000	0.000000	0.000000
; New Junction
JCT-3094	698.800000	10.760000	0.000000	0.000000	0.000000
; New Junction
JCT-3096	702.080000	7.660000	0.000000	0.000000	0.000000
; New Junction
JCT-3098	705.060000	5.300000	0.000000	0.000000	0.000000