[OPTIONS]
;Option and Files Scenario Set: BASE, Base Simulation Options
FLOW_UNITS		CFS
INFILTRATION		HORTON
FLOW_ROUTING		DYNWAVE
LINK_OFFSETS		DEPTH
MIN_SLOPE		0.000000
ALLOW_PONDING		YES
SKIP_STEADY_STATE 	NO
IGNORE_RAINFALL		NO
IGNORE_SNOWMELT		YES
IGNORE_GROUNDWATER	YES
IGNORE_QUALITY		YES

START_DATE		01/01/2002
START_TIME		00:00
REPORT_START_DATE	01/01/2002
REPORT_START_TIME	01:00
END_DATE		01/04/2002
END_TIME		00:00
SWEEP_START		01/01
SWEEP_END		12/31
DRY_DAYS		5.000000
REPORT_STEP		00:05:00
WET_STEP		00:30:00
DRY_STEP		01:00:00
ROUTING_STEP		10

INERTIAL_DAMPING	NONE
NORMAL_FLOW_LIMITED	SLOPE
FORCE_MAIN_EQUATION	H-W
VARIABLE_STEP		0.750000
LENGTHENING_STEP	30
MIN_SURFAREA		0.000000
MAX_TRIALS		4
HEAD_TOLERANCE	0.005000
MINIMUM_STEP		0.5


[FILES]

[RAINGAGES]
50YEARSTORM	CUMULATIVE	0.250000	1.000000	TIMESERIES	50YRSTORM		

[HYDROGRAPHS]

[TEMPERATURE]

[SUBCATCHMENTS]
; New Subcatchment
SUB-10	50YEARSTORM	1364	4.917855	40.000000	100.000000	1.000000	0.000000
; New Subcatchment
SUB-100	50YEARSTORM	669	24.710803	40.000000	100.000000	1.000000	0.000000
; New Subcatchment
SUB-102	50YEARSTORM	42	10.670597	40.000000	100.000000	1.000000	0.000000
; New Subcatchment
SUB-104	50YEARSTORM	687	63.462314	40.000000	100.000000	1.000000	0.000000
; New Subcatchment
SUB-106	50YEARSTORM	2300	58.468803	40.000000	100.000000	1.000000	0.000000
; New Subcatchment
SUB-108	50YEARSTORM	2033	22.579290	40.000000	100.000000	1.000000	0.000000
; New Subcatchment
SUB-110	50YEARSTORM	2142	29.339410	40.000000	100.000000	1.000000	0.000000
; New Subcatchment
SUB-112	50YEARSTORM	2167	28.258885	40.000000	100.000000	1.000000	0.000000
; New Subcatchment
SUB-114	50YEARSTORM	STOR-8	14.041492	40.000000	100.000000	1.000000	0.000000
; New Subcatchment
SUB-116	50YEARSTORM	2039	14.045566	40.000000	100.000000	1.000000	0.000000
; New Subcatchment
SUB-12	50YEARSTORM	1413	7.643313	40.000000	100.000000	1.000000	0.000000
; New Subcatchment
SUB-120	50YEARSTORM	1838	11.495224	40.000000	100.000000	1.000000	0.000000
; New Subcatchment
SUB-122	50YEARSTORM	1922	13.721147	40.000000	100.000000	1.000000	0.000000
; New Subcatchment
SUB-124	50YEARSTORM	1886	14.296064	40.000000	100.000000	1.000000	0.000000
; New Subcatchment
SUB-126	50YEARSTORM	2207	12.902152	40.000000	100.000000	1.000000	0.000000
; New Subcatchment
SUB-128	50YEARSTORM	2203	22.641249	40.000000	100.000000	1.000000	0.000000
; New Subcatchment
SUB-130	50YEARSTORM	973	26.452604	40.000000	100.000000	1.000000	0.000000
; New Subcatchment
SUB-132	50YEARSTORM	1112	26.916525	40.000000	100.000000	1.000000	0.000000
; New Subcatchment
SUB-134	50YEARSTORM	1109	19.294413	40.000000	100.000000	1.000000	0.000000
; New Subcatchment
SUB-136	50YEARSTORM	1108	24.727746	40.000000	100.000000	1.000000	0.000000
; New Subcatchment
SUB-138	50YEARSTORM	1091	13.494119	40.000000	100.000000	1.000000	0.000000
; New Subcatchment
SUB-14	50YEARSTORM	1478	12.559106	40.000000	100.000000	1.000000	0.000000
; New Subcatchment
SUB-140	50YEARSTORM	JCT-1700	38.011706	40.000000	100.000000	1.000000	0.000000
; New Subcatchment
SUB-142	50YEARSTORM	444	40.242027	40.000000	100.000000	1.000000	0.000000
; New Subcatchment
SUB-146	50YEARSTORM	2089	75.359518	40.000000	100.000000	1.000000	0.000000
; New Subcatchment
SUB-148	50YEARSTORM	7604	45.156280	40.000000	100.000000	1.000000	0.000000
; New Subcatchment
SUB-150	50YEARSTORM	1065	18.300409	40.000000	100.000000	1.000000	0.000000
; New Subcatchment
SUB-152	50YEARSTORM	928	15.708168	40.000000	100.000000	1.000000	0.000000
; New Subcatchment
SUB-154	50YEARSTORM	937	36.340829	40.000000	100.000000	1.000000	0.000000
; New Subcatchment
SUB-156	50YEARSTORM	7073	10.900479	40.000000	100.000000	1.000000	0.000000
; New Subcatchment
SUB-158	50YEARSTORM	989	17.444891	40.000000	100.000000	1.000000	0.000000
; New Subcatchment
SUB-16	50YEARSTORM	1414	7.145317	40.000000	100.000000	1.000000	0.000000
; New Subcatchment
SUB-160	50YEARSTORM	951	9.015467	40.000000	100.000000	1.000000	0.000000
; New Subcatchment
SUB-162	50YEARSTORM	1124	8.519805	40.000000	100.000000	1.000000	0.000000
; New Subcatchment
SUB-164	50YEARSTORM	945	5.804425	40.000000	100.000000	1.000000	0.000000
; New Subcatchment
SUB-166	50YEARSTORM	1087	46.089446	40.000000	100.000000	1.000000	0.000000
; New Subcatchment
SUB-168	50YEARSTORM	624	33.415798	40.000000	100.000000	1.000000	0.000000
; New Subcatchment
SUB-170	50YEARSTORM	617	25.279893	40.000000	100.000000	1.000000	0.000000
; New Subcatchment
SUB-172	50YEARSTORM	1203	32.680219	40.000000	100.000000	1.000000	0.000000
; New Subcatchment
SUB-174	50YEARSTORM	7380	16.945727	40.000000	100.000000	1.000000	0.000000
; New Subcatchment
SUB-176	50YEARSTORM	1651	25.055347	40.000000	100.000000	1.000000	0.000000
; New Subcatchment
SUB-178	50YEARSTORM	1239	24.253655	40.000000	100.000000	1.000000	0.000000
; New Subcatchment
SUB-18	50YEARSTORM	1393	15.131808	40.000000	100.000000	1.000000	0.000000
; New Subcatchment
SUB-180	50YEARSTORM	1241	14.899927	40.000000	100.000000	1.000000	0.000000
; New Subcatchment
SUB-182	50YEARSTORM	1245	28.085020	40.000000	100.000000	1.000000	0.000000
; New Subcatchment
SUB-184	50YEARSTORM	1293	28.522458	40.000000	100.000000	1.000000	0.000000
; New Subcatchment
SUB-186	50YEARSTORM	1287	29.606922	40.000000	100.000000	1.000000	0.000000
; New Subcatchment
SUB-188	50YEARSTORM	7376	12.232738	40.000000	100.000000	1.000000	0.000000
; New Subcatchment
SUB-190	50YEARSTORM	1254	14.182675	40.000000	100.000000	1.000000	0.000000
; New Subcatchment
SUB-192	50YEARSTORM	1286	14.300448	40.000000	100.000000	1.000000	0.000000
; New Subcatchment
SUB-194	50YEARSTORM	461	24.101119	40.000000	100.000000	1.000000	0.000000
; New Subcatchment
SUB-196	50YEARSTORM	517	33.446695	40.000000	100.000000	1.000000	0.000000
; New Subcatchment
SUB-198	50YEARSTORM	1208	27.801579	40.000000	100.000000	1.000000	0.000000
; New Subcatchment
SUB-20	50YEARSTORM	1374	14.897206	40.000000	100.000000	1.000000	0.000000
; New Subcatchment
SUB-200	50YEARSTORM	1162	72.491186	40.000000	100.000000	1.000000	0.000000
; New Subcatchment
SUB-204	50YEARSTORM	3491	30.456342	40.000000	100.000000	1.000000	0.000000
; New Subcatchment
SUB-206	50YEARSTORM	4090	22.509849	40.000000	100.000000	1.000000	0.000000
; New Subcatchment
SUB-208	50YEARSTORM	3267	36.744951	40.000000	100.000000	1.000000	0.000000
; New Subcatchment
SUB-210	50YEARSTORM	4088	12.741578	40.000000	100.000000	1.000000	0.000000
; New Subcatchment
SUB-212	50YEARSTORM	4097	22.796179	40.000000	100.000000	1.000000	0.000000
; New Subcatchment
SUB-214	50YEARSTORM	4138	31.933117	40.000000	100.000000	1.000000	0.000000
; New Subcatchment
SUB-216	50YEARSTORM	4353	44.181756	40.000000	100.000000	1.000000	0.000000
; New Subcatchment
SUB-218	50YEARSTORM	4214	68.953916	40.000000	100.000000	1.000000	0.000000
; New Subcatchment
SUB-22	50YEARSTORM	391	35.406881	40.000000	100.000000	1.000000	0.000000
; New Subcatchment
SUB-220	50YEARSTORM	4237	64.858511	40.000000	100.000000	1.000000	0.000000
; New Subcatchment
SUB-222	50YEARSTORM	7387	58.155338	40.000000	100.000000	1.000000	0.000000
; New Subcatchment
SUB-224	50YEARSTORM	2232	54.815387	40.000000	100.000000	1.000000	0.000000
; New Subcatchment
SUB-226	50YEARSTORM	2241	16.420718	40.000000	100.000000	1.000000	0.000000
; New Subcatchment
SUB-228	50YEARSTORM	1656	20.142237	40.000000	100.000000	1.000000	0.000000
; New Subcatchment
SUB-230	50YEARSTORM	1098	19.368929	40.000000	100.000000	1.000000	0.000000
; New Subcatchment
SUB-232	50YEARSTORM	1662	10.662128	40.000000	100.000000	1.000000	0.000000
; New Subcatchment
SUB-234	50YEARSTORM	7098	6.396928	40.000000	100.000000	1.000000	0.000000
; New Subcatchment
SUB-236	50YEARSTORM	1097	17.675511	40.000000	100.000000	1.000000	0.000000
; New Subcatchment
SUB-238	50YEARSTORM	956	21.063486	40.000000	100.000000	1.000000	0.000000
; New Subcatchment
SUB-24	50YEARSTORM	386	23.419875	40.000000	100.000000	1.000000	0.000000
; New Subcatchment
SUB-240	50YEARSTORM	1122	8.161281	40.000000	100.000000	1.000000	0.000000
; New Subcatchment
SUB-242	50YEARSTORM	3314	76.631876	40.000000	100.000000	1.000000	0.000000
; New Subcatchment
SUB-244	50YEARSTORM	3203	13.399107	40.000000	100.000000	1.000000	0.000000
; New Subcatchment
SUB-246	50YEARSTORM	3207	53.287250	40.000000	100.000000	1.000000	0.000000
; New Subcatchment
SUB-248	50YEARSTORM	JCT-1310	157.267277	40.000000	100.000000	1.000000	0.000000
; New Subcatchment
SUB-250	50YEARSTORM	2692	9.772517	40.000000	100.000000	1.000000	0.000000
; New Subcatchment
SUB-252	50YEARSTORM	2596	15.073972	40.000000	100.000000	1.000000	0.000000
; New Subcatchment
SUB-254	50YEARSTORM	2688	109.509486	40.000000	100.000000	1.000000	0.000000
; New Subcatchment
SUB-256	50YEARSTORM	3174	15.070537	40.000000	100.000000	1.000000	0.000000
; New Subcatchment
SUB-258	50YEARSTORM	2370	14.245917	40.000000	100.000000	1.000000	0.000000
; New Subcatchment
SUB-26	50YEARSTORM	JCT-516	38.569314	40.000000	100.000000	1.000000	0.000000
; New Subcatchment
SUB-260	50YEARSTORM	4227	55.898004	40.000000	100.000000	1.000000	0.000000
; New Subcatchment
SUB-262	50YEARSTORM	4207	18.044358	40.000000	100.000000	1.000000	0.000000
; New Subcatchment
SUB-266	50YEARSTORM	3978	8.378096	40.000000	100.000000	1.000000	0.000000
; New Subcatchment
SUB-268	50YEARSTORM	2833	2.511170	40.000000	100.000000	1.000000	0.000000
; New Subcatchment
SUB-270	50YEARSTORM	2829	3.110503	40.000000	100.000000	1.000000	0.000000
; New Subcatchment
SUB-272	50YEARSTORM	3776	15.580805	40.000000	100.000000	1.000000	0.000000
; New Subcatchment
SUB-274	50YEARSTORM	3950	19.700636	40.000000	100.000000	1.000000	0.000000
; New Subcatchment
SUB-276	50YEARSTORM	3971	29.545685	40.000000	100.000000	1.000000	0.000000
; New Subcatchment
SUB-278	50YEARSTORM	3729	58.987521	40.000000	100.000000	1.000000	0.000000
; New Subcatchment
SUB-28	50YEARSTORM	JCT-1716	13.295129	40.000000	100.000000	1.000000	0.000000
; New Subcatchment
SUB-280	50YEARSTORM	3041	20.956709	40.000000	100.000000	1.000000	0.000000
; New Subcatchment
SUB-282	50YEARSTORM	3046	35.262930	40.000000	100.000000	1.000000	0.000000
; New Subcatchment
SUB-284	50YEARSTORM	3089	28.294243	40.000000	100.000000	1.000000	0.000000
; New Subcatchment
SUB-286	50YEARSTORM	3090	16.680154	40.000000	100.000000	1.000000	0.000000
; New Subcatchment
SUB-288	50YEARSTORM	3048	49.989786	40.000000	100.000000	1.000000	0.000000
; New Subcatchment
SUB-290	50YEARSTORM	2761	13.106744	40.000000	100.000000	1.000000	0.000000
; New Subcatchment
SUB-292	50YEARSTORM	3970	130.670138	40.000000	100.000000	1.000000	0.000000
; New Subcatchment
SUB-294	50YEARSTORM	3892	36.091484	40.000000	100.000000	1.000000	0.000000
; New Subcatchment
SUB-296	50YEARSTORM	1076	83.472928	40.000000	100.000000	1.000000	0.000000
; New Subcatchment
SUB-298	50YEARSTORM	STOR-14	42.676475	40.000000	100.000000	1.000000	0.000000
; New Subcatchment
SUB-30	50YEARSTORM	JCT-1586	39.218435	40.000000	100.000000	1.000000	0.000000
; New Subcatchment
SUB-302	50YEARSTORM	3782	16.577865	40.000000	100.000000	1.000000	0.000000
; New Subcatchment
SUB-304	50YEARSTORM	3833	34.997379	40.000000	100.000000	1.000000	0.000000
; New Subcatchment
SUB-306	50YEARSTORM	78	10.829678	40.000000	100.000000	1.000000	0.000000
; New Subcatchment
SUB-308	50YEARSTORM	77	7.195845	40.000000	100.000000	1.000000	0.000000
; New Subcatchment
SUB-310	50YEARSTORM	7548	8.355234	40.000000	100.000000	1.000000	0.000000
; New Subcatchment
SUB-312	50YEARSTORM	3823	16.760935	40.000000	100.000000	1.000000	0.000000
; New Subcatchment
SUB-314	50YEARSTORM	3797	6.804551	40.000000	100.000000	1.000000	0.000000
; New Subcatchment
SUB-316	50YEARSTORM	79	9.030588	40.000000	100.000000	1.000000	0.000000
; New Subcatchment
SUB-318	50YEARSTORM	JCT-1880	11.272616	40.000000	100.000000	1.000000	0.000000
; New Subcatchment
SUB-32	50YEARSTORM	3461	285.094279	40.000000	100.000000	1.000000	0.000000
; New Subcatchment
SUB-320	50YEARSTORM	3740	7.720832	40.000000	100.000000	1.000000	0.000000
; New Subcatchment
SUB-322	50YEARSTORM	3747	12.349355	40.000000	100.000000	1.000000	0.000000
; New Subcatchment
SUB-324	50YEARSTORM	3580	36.024616	40.000000	100.000000	1.000000	0.000000
; New Subcatchment
SUB-326	50YEARSTORM	2346	34.897498	40.000000	100.000000	1.000000	0.000000
; New Subcatchment
SUB-328	50YEARSTORM	913	38.378932	40.000000	100.000000	1.000000	0.000000
; New Subcatchment
SUB-330	50YEARSTORM	709	42.042484	40.000000	100.000000	1.000000	0.000000
; New Subcatchment
SUB-332	50YEARSTORM	692	16.542894	40.000000	100.000000	1.000000	0.000000
; New Subcatchment
SUB-334	50YEARSTORM	7128	4.938188	40.000000	100.000000	1.000000	0.000000
; New Subcatchment
SUB-336	50YEARSTORM	2534	14.283161	40.000000	100.000000	1.000000	0.000000
; New Subcatchment
SUB-338	50YEARSTORM	2512	17.783369	40.000000	100.000000	1.000000	0.000000
; New Subcatchment
SUB-34	50YEARSTORM	3133	85.895430	40.000000	100.000000	1.000000	0.000000
; New Subcatchment
SUB-340	50YEARSTORM	2506	31.197385	40.000000	100.000000	1.000000	0.000000
; New Subcatchment
SUB-342	50YEARSTORM	2905	24.225201	40.000000	100.000000	1.000000	0.000000
; New Subcatchment
SUB-344	50YEARSTORM	2967	28.580844	40.000000	100.000000	1.000000	0.000000
; New Subcatchment
SUB-346	50YEARSTORM	829	6.932908	40.000000	100.000000	1.000000	0.000000
; New Subcatchment
SUB-348	50YEARSTORM	3183	42.250588	40.000000	100.000000	1.000000	0.000000
; New Subcatchment
SUB-350	50YEARSTORM	3175	8.536249	40.000000	100.000000	1.000000	0.000000
; New Subcatchment
SUB-352	50YEARSTORM	2359	4.761952	40.000000	100.000000	1.000000	0.000000
; New Subcatchment
SUB-354	50YEARSTORM	7126	3.025672	40.000000	100.000000	1.000000	0.000000
; New Subcatchment
SUB-356	50YEARSTORM	3100	0.852104	40.000000	100.000000	1.000000	0.000000
; New Subcatchment
SUB-358	50YEARSTORM	3096	0.714603	40.000000	100.000000	1.000000	0.000000
; New Subcatchment
SUB-36	50YEARSTORM	3245	70.234472	40.000000	100.000000	1.000000	0.000000
; New Subcatchment
SUB-360	50YEARSTORM	3085	1.154669	40.000000	100.000000	1.000000	0.000000
; New Subcatchment
SUB-362	50YEARSTORM	3086	0.815623	40.000000	100.000000	1.000000	0.000000
; New Subcatchment
SUB-364	50YEARSTORM	2970	17.650020	40.000000	100.000000	1.000000	0.000000
; New Subcatchment
SUB-366	50YEARSTORM	2911	35.239066	40.000000	100.000000	1.000000	0.000000
; New Subcatchment
SUB-368	50YEARSTORM	2323	56.657611	40.000000	100.000000	1.000000	0.000000
; New Subcatchment
SUB-370	50YEARSTORM	2293	54.772979	40.000000	100.000000	1.000000	0.000000
; New Subcatchment
SUB-372	50YEARSTORM	2310	29.655775	40.000000	100.000000	1.000000	0.000000
; New Subcatchment
SUB-374	50YEARSTORM	2054	15.548278	40.000000	100.000000	1.000000	0.000000
; New Subcatchment
SUB-376	50YEARSTORM	1930	42.019019	40.000000	100.000000	1.000000	0.000000
; New Subcatchment
SUB-378	50YEARSTORM	1883	34.487291	40.000000	100.000000	1.000000	0.000000
; New Subcatchment
SUB-38	50YEARSTORM	3360	22.687816	40.000000	100.000000	1.000000	0.000000
; New Subcatchment
SUB-380	50YEARSTORM	3381	579.388810	40.000000	100.000000	1.000000	0.000000
; New Subcatchment
SUB-382	50YEARSTORM	3390	36.926465	40.000000	100.000000	1.000000	0.000000
; New Subcatchment
SUB-384	50YEARSTORM	3169	7.112635	40.000000	100.000000	1.000000	0.000000
; New Subcatchment
SUB-386	50YEARSTORM	3327	12.731540	40.000000	100.000000	1.000000	0.000000
; New Subcatchment
SUB-388	50YEARSTORM	3373	8.650250	40.000000	100.000000	1.000000	0.000000
; New Subcatchment
SUB-390	50YEARSTORM	3160	11.837869	40.000000	100.000000	1.000000	0.000000
; New Subcatchment
SUB-392	50YEARSTORM	7133	12.264635	40.000000	100.000000	1.000000	0.000000
; New Subcatchment
SUB-394	50YEARSTORM	888	21.088310	40.000000	100.000000	1.000000	0.000000
; New Subcatchment
SUB-396	50YEARSTORM	2331	33.649686	40.000000	100.000000	1.000000	0.000000
; New Subcatchment
SUB-398	50YEARSTORM	5753	30.442259	40.000000	100.000000	1.000000	0.000000
; New Subcatchment
SUB-40	50YEARSTORM	3167	9.960519	40.000000	100.000000	1.000000	0.000000
; New Subcatchment
SUB-400	50YEARSTORM	711	11.818744	40.000000	100.000000	1.000000	0.000000
; New Subcatchment
SUB-402	50YEARSTORM	712	17.092667	40.000000	100.000000	1.000000	0.000000
; New Subcatchment
SUB-404	50YEARSTORM	3574	10.748465	40.000000	100.000000	1.000000	0.000000
; New Subcatchment
SUB-406	50YEARSTORM	3548	15.832284	40.000000	100.000000	1.000000	0.000000
; New Subcatchment
SUB-408	50YEARSTORM	3549	3.799858	40.000000	100.000000	1.000000	0.000000
; New Subcatchment
SUB-410	50YEARSTORM	3550	9.814692	40.000000	100.000000	1.000000	0.000000
; New Subcatchment
SUB-412	50YEARSTORM	3556	8.411493	40.000000	100.000000	1.000000	0.000000
; New Subcatchment
SUB-414	50YEARSTORM	2899	25.618062	40.000000	100.000000	1.000000	0.000000
; New Subcatchment
SUB-416	50YEARSTORM	JCT-338	17.915398	40.000000	100.000000	1.000000	0.000000
; New Subcatchment
SUB-418	50YEARSTORM	JCT-226	4.669114	40.000000	100.000000	1.000000	0.000000
; New Subcatchment
SUB-42	50YEARSTORM	3330	17.431855	40.000000	100.000000	1.000000	0.000000
; New Subcatchment
SUB-420	50YEARSTORM	94	19.688516	40.000000	100.000000	1.000000	0.000000
; New Subcatchment
SUB-422	50YEARSTORM	3654	10.733619	40.000000	100.000000	1.000000	0.000000
; New Subcatchment
SUB-424	50YEARSTORM	3762	5.256030	40.000000	100.000000	1.000000	0.000000
; New Subcatchment
SUB-426	50YEARSTORM	2880	21.215087	40.000000	100.000000	1.000000	0.000000
; New Subcatchment
SUB-428	50YEARSTORM	2389	11.400425	40.000000	100.000000	1.000000	0.000000
; New Subcatchment
SUB-430	50YEARSTORM	787	16.462411	40.000000	100.000000	1.000000	0.000000
; New Subcatchment
SUB-432	50YEARSTORM	2888	13.327585	40.000000	100.000000	1.000000	0.000000
; New Subcatchment
SUB-434	50YEARSTORM	3665	21.269134	40.000000	100.000000	1.000000	0.000000
; New Subcatchment
SUB-436	50YEARSTORM	3670	27.545286	40.000000	100.000000	1.000000	0.000000
; New Subcatchment
SUB-438	50YEARSTORM	3641	13.103229	40.000000	100.000000	1.000000	0.000000
; New Subcatchment
SUB-440	50YEARSTORM	2434	20.878242	40.000000	100.000000	1.000000	0.000000
; New Subcatchment
SUB-442	50YEARSTORM	804	10.933727	40.000000	100.000000	1.000000	0.000000
; New Subcatchment
SUB-444	50YEARSTORM	363	37.460496	40.000000	100.000000	1.000000	0.000000
; New Subcatchment
SUB-446	50YEARSTORM	STOR-17	49.683825	40.000000	100.000000	1.000000	0.000000
; New Subcatchment
SUB-448	50YEARSTORM	JCT-1840	2.829799	40.000000	100.000000	1.000000	0.000000
; New Subcatchment
SUB-450	50YEARSTORM	142	9.461477	40.000000	100.000000	1.000000	0.000000
; New Subcatchment
SUB-452	50YEARSTORM	JCT-166	24.164007	40.000000	100.000000	1.000000	0.000000
; New Subcatchment
SUB-456	50YEARSTORM	260	3.557595	40.000000	100.000000	1.000000	0.000000
; New Subcatchment
SUB-458	50YEARSTORM	2289	7.195342	40.000000	100.000000	1.000000	0.000000
; New Subcatchment
SUB-46	50YEARSTORM	2320	40.781094	40.000000	100.000000	1.000000	0.000000
; New Subcatchment
SUB-460	50YEARSTORM	272	13.386924	40.000000	100.000000	1.000000	0.000000
; New Subcatchment
SUB-462	50YEARSTORM	286	14.775809	40.000000	100.000000	1.000000	0.000000
; New Subcatchment
SUB-464	50YEARSTORM	202	19.766595	40.000000	100.000000	1.000000	0.000000
; New Subcatchment
SUB-466	50YEARSTORM	195	21.825510	40.000000	100.000000	1.000000	0.000000
; New Subcatchment
SUB-468	50YEARSTORM	173	16.595734	40.000000	100.000000	1.000000	0.000000
; New Subcatchment
SUB-470	50YEARSTORM	211	22.994766	40.000000	100.000000	1.000000	0.000000
; New Subcatchment
SUB-472	50YEARSTORM	135	11.694666	40.000000	100.000000	1.000000	0.000000
; New Subcatchment
SUB-474	50YEARSTORM	239	4.515401	40.000000	100.000000	1.000000	0.000000
; New Subcatchment
SUB-476	50YEARSTORM	154	8.081559	40.000000	100.000000	1.000000	0.000000
; New Subcatchment
SUB-478	50YEARSTORM	13	9.754028	40.000000	100.000000	1.000000	0.000000
; New Subcatchment
SUB-48	50YEARSTORM	546	46.958232	40.000000	100.000000	1.000000	0.000000
; New Subcatchment
SUB-480	50YEARSTORM	7327	12.358433	40.000000	100.000000	1.000000	0.000000
; New Subcatchment
SUB-482	50YEARSTORM	3647	13.982463	40.000000	100.000000	1.000000	0.000000
; New Subcatchment
SUB-484	50YEARSTORM	3678	2.649050	40.000000	100.000000	1.000000	0.000000
; New Subcatchment
SUB-486	50YEARSTORM	JCT-2058	9.579985	40.000000	100.000000	1.000000	0.000000
; New Subcatchment
SUB-488	50YEARSTORM	2473	14.828248	40.000000	100.000000	1.000000	0.000000
; New Subcatchment
SUB-490	50YEARSTORM	4863	11.886455	40.000000	100.000000	1.000000	0.000000
; New Subcatchment
SUB-492	50YEARSTORM	7194	24.996397	40.000000	100.000000	1.000000	0.000000
; New Subcatchment
SUB-494	50YEARSTORM	STOR-19	9.297769	40.000000	100.000000	1.000000	0.000000
; New Subcatchment
SUB-496	50YEARSTORM	4689	6.528608	40.000000	100.000000	1.000000	0.000000
; New Subcatchment
SUB-498	50YEARSTORM	4661	10.623030	40.000000	100.000000	1.000000	0.000000
; New Subcatchment
SUB-50	50YEARSTORM	1780	21.987353	40.000000	100.000000	1.000000	0.000000
; New Subcatchment
SUB-500	50YEARSTORM	4656	11.211941	40.000000	100.000000	1.000000	0.000000
; New Subcatchment
SUB-502	50YEARSTORM	4713	12.964703	40.000000	100.000000	1.000000	0.000000
; New Subcatchment
SUB-504	50YEARSTORM	4708	12.798676	40.000000	100.000000	1.000000	0.000000
; New Subcatchment
SUB-506	50YEARSTORM	7679	22.988526	40.000000	100.000000	1.000000	0.000000
; New Subcatchment
SUB-508	50YEARSTORM	4380	17.321034	40.000000	100.000000	1.000000	0.000000
; New Subcatchment
SUB-510	50YEARSTORM	4383	11.579305	40.000000	100.000000	1.000000	0.000000
; New Subcatchment
SUB-512	50YEARSTORM	4486	9.880808	40.000000	100.000000	1.000000	0.000000
; New Subcatchment
SUB-514	50YEARSTORM	4419	8.513568	40.000000	100.000000	1.000000	0.000000
; New Subcatchment
SUB-516	50YEARSTORM	4452	9.536490	40.000000	100.000000	1.000000	0.000000
; New Subcatchment
SUB-518	50YEARSTORM	4450	14.980767	40.000000	100.000000	1.000000	0.000000
; New Subcatchment
SUB-52	50YEARSTORM	1778	17.746116	40.000000	100.000000	1.000000	0.000000
; New Subcatchment
SUB-520	50YEARSTORM	4448	13.081574	40.000000	100.000000	1.000000	0.000000
; New Subcatchment
SUB-522	50YEARSTORM	7685	16.300331	40.000000	100.000000	1.000000	0.000000
; New Subcatchment
SUB-524	50YEARSTORM	4553	18.371252	40.000000	100.000000	1.000000	0.000000
; New Subcatchment
SUB-526	50YEARSTORM	4471	22.600136	40.000000	100.000000	1.000000	0.000000
; New Subcatchment
SUB-528	50YEARSTORM	4585	9.052625	40.000000	100.000000	1.000000	0.000000
; New Subcatchment
SUB-530	50YEARSTORM	4630	17.626051	40.000000	100.000000	1.000000	0.000000
; New Subcatchment
SUB-532	50YEARSTORM	4623	7.188405	40.000000	100.000000	1.000000	0.000000
; New Subcatchment
SUB-534	50YEARSTORM	4649	7.508980	40.000000	100.000000	1.000000	0.000000
; New Subcatchment
SUB-536	50YEARSTORM	4680	5.745342	40.000000	100.000000	1.000000	0.000000
; New Subcatchment
SUB-538	50YEARSTORM	4785	10.800975	40.000000	100.000000	1.000000	0.000000
; New Subcatchment
SUB-54	50YEARSTORM	1745	27.301104	40.000000	100.000000	1.000000	0.000000
; New Subcatchment
SUB-540	50YEARSTORM	4749	1.729222	40.000000	100.000000	1.000000	0.000000
; New Subcatchment
SUB-542	50YEARSTORM	5018	11.342835	40.000000	100.000000	1.000000	0.000000
; New Subcatchment
SUB-544	50YEARSTORM	5074	6.366002	40.000000	100.000000	1.000000	0.000000
; New Subcatchment
SUB-546	50YEARSTORM	STOR-11	9.178308	40.000000	100.000000	1.000000	0.000000
; New Subcatchment
SUB-548	50YEARSTORM	5035	4.364883	40.000000	100.000000	1.000000	0.000000
; New Subcatchment
SUB-550	50YEARSTORM	5052	4.877050	40.000000	100.000000	1.000000	0.000000
; New Subcatchment
SUB-552	50YEARSTORM	5268	72.349581	40.000000	100.000000	1.000000	0.000000
; New Subcatchment
SUB-554	50YEARSTORM	2444	28.597663	40.000000	100.000000	1.000000	0.000000
; New Subcatchment
SUB-556	50YEARSTORM	5783	23.012838	40.000000	100.000000	1.000000	0.000000
; New Subcatchment
SUB-558	50YEARSTORM	2485	24.012323	40.000000	100.000000	1.000000	0.000000
; New Subcatchment
SUB-56	50YEARSTORM	1735	23.602151	40.000000	100.000000	1.000000	0.000000
; New Subcatchment
SUB-560	50YEARSTORM	2447	17.736446	40.000000	100.000000	1.000000	0.000000
; New Subcatchment
SUB-562	50YEARSTORM	5261	22.648109	40.000000	100.000000	1.000000	0.000000
; New Subcatchment
SUB-564	50YEARSTORM	5119	12.313267	40.000000	100.000000	1.000000	0.000000
; New Subcatchment
SUB-566	50YEARSTORM	4934	2.936939	40.000000	100.000000	1.000000	0.000000
; New Subcatchment
SUB-568	50YEARSTORM	4959	4.805393	40.000000	100.000000	1.000000	0.000000
; New Subcatchment
SUB-570	50YEARSTORM	4971	5.994641	40.000000	100.000000	1.000000	0.000000
; New Subcatchment
SUB-572	50YEARSTORM	4961	4.413660	40.000000	100.000000	1.000000	0.000000
; New Subcatchment
SUB-574	50YEARSTORM	4956	6.931516	40.000000	100.000000	1.000000	0.000000
; New Subcatchment
SUB-576	50YEARSTORM	4993	2.240127	40.000000	100.000000	1.000000	0.000000
; New Subcatchment
SUB-578	50YEARSTORM	4950	7.992383	40.000000	100.000000	1.000000	0.000000
; New Subcatchment
SUB-58	50YEARSTORM	7382	10.347943	40.000000	100.000000	1.000000	0.000000
; New Subcatchment
SUB-580	50YEARSTORM	4768	7.328626	40.000000	100.000000	1.000000	0.000000
; New Subcatchment
SUB-582	50YEARSTORM	4822	12.394403	40.000000	100.000000	1.000000	0.000000
; New Subcatchment
SUB-584	50YEARSTORM	5091	14.324015	40.000000	100.000000	1.000000	0.000000
; New Subcatchment
SUB-586	50YEARSTORM	5731	38.351476	40.000000	100.000000	1.000000	0.000000
; New Subcatchment
SUB-588	50YEARSTORM	5763	4.608443	40.000000	100.000000	1.000000	0.000000
; New Subcatchment
SUB-590	50YEARSTORM	JCT-438	2.798439	40.000000	100.000000	1.000000	0.000000
; New Subcatchment
SUB-592	50YEARSTORM	7633	4.526105	40.000000	100.000000	1.000000	0.000000
; New Subcatchment
SUB-594	50YEARSTORM	JCT-502	9.391743	40.000000	100.000000	1.000000	0.000000
; New Subcatchment
SUB-596	50YEARSTORM	5648	46.268818	40.000000	100.000000	1.000000	0.000000
; New Subcatchment
SUB-598	50YEARSTORM	JCT-2124	10.592231	40.000000	100.000000	1.000000	0.000000
; New Subcatchment
SUB-600	50YEARSTORM	5762	5.744342	40.000000	100.000000	1.000000	0.000000
; New Subcatchment
SUB-602	50YEARSTORM	5759	7.181187	40.000000	100.000000	1.000000	0.000000
; New Subcatchment
SUB-604	50YEARSTORM	5661	16.520246	40.000000	100.000000	1.000000	0.000000
; New Subcatchment
SUB-606	50YEARSTORM	5604	28.231437	40.000000	100.000000	1.000000	0.000000
; New Subcatchment
SUB-608	50YEARSTORM	5402	27.263307	40.000000	100.000000	1.000000	0.000000
; New Subcatchment
SUB-610	50YEARSTORM	5576	14.830877	40.000000	100.000000	1.000000	0.000000
; New Subcatchment
SUB-612	50YEARSTORM	5513	31.867264	40.000000	100.000000	1.000000	0.000000
; New Subcatchment
SUB-614	50YEARSTORM	5694	19.816926	40.000000	100.000000	1.000000	0.000000
; New Subcatchment
SUB-616	50YEARSTORM	5472	12.418053	40.000000	100.000000	1.000000	0.000000
; New Subcatchment
SUB-618	50YEARSTORM	5532	17.858776	40.000000	100.000000	1.000000	0.000000
; New Subcatchment
SUB-62	50YEARSTORM	1204	20.176158	40.000000	100.000000	1.000000	0.000000
; New Subcatchment
SUB-620	50YEARSTORM	5541	25.033810	40.000000	100.000000	1.000000	0.000000
; New Subcatchment
SUB-622	50YEARSTORM	5546	5.870142	40.000000	100.000000	1.000000	0.000000
; New Subcatchment
SUB-624	50YEARSTORM	5343	29.971352	40.000000	100.000000	1.000000	0.000000
; New Subcatchment
SUB-626	50YEARSTORM	5430	2.839390	40.000000	100.000000	1.000000	0.000000
; New Subcatchment
SUB-628	50YEARSTORM	5424	2.148772	40.000000	100.000000	1.000000	0.000000
; New Subcatchment
SUB-630	50YEARSTORM	5307	10.717116	40.000000	100.000000	1.000000	0.000000
; New Subcatchment
SUB-632	50YEARSTORM	5288	14.900475	40.000000	100.000000	1.000000	0.000000
; New Subcatchment
SUB-634	50YEARSTORM	7661	29.155897	40.000000	100.000000	1.000000	0.000000
; New Subcatchment
SUB-636	50YEARSTORM	57	11.190132	40.000000	100.000000	1.000000	0.000000
; New Subcatchment
SUB-638	50YEARSTORM	STOR-30	22.331108	40.000000	100.000000	1.000000	0.000000
; New Subcatchment
SUB-64	50YEARSTORM	521	11.463300	40.000000	100.000000	1.000000	0.000000
; New Subcatchment
SUB-640	50YEARSTORM	7583	26.907065	40.000000	100.000000	1.000000	0.000000
; New Subcatchment
SUB-642	50YEARSTORM	JCT-1988	11.501432	40.000000	100.000000	1.000000	0.000000
; New Subcatchment
SUB-644	50YEARSTORM	JCT-2394	6.253879	40.000000	100.000000	1.000000	0.000000
; New Subcatchment
SUB-646	50YEARSTORM	4724	3.366066	40.000000	100.000000	1.000000	0.000000
; New Subcatchment
SUB-648	50YEARSTORM	4786	3.225447	40.000000	100.000000	1.000000	0.000000
; New Subcatchment
SUB-650	50YEARSTORM	4733	3.199499	40.000000	100.000000	1.000000	0.000000
; New Subcatchment
SUB-652	50YEARSTORM	4865	1.681797	40.000000	100.000000	1.000000	0.000000
; New Subcatchment
SUB-654	50YEARSTORM	4871	6.850428	40.000000	100.000000	1.000000	0.000000
; New Subcatchment
SUB-656	50YEARSTORM	4817	11.509696	40.000000	100.000000	1.000000	0.000000
; New Subcatchment
SUB-658	50YEARSTORM	7537	1.262375	40.000000	100.000000	1.000000	0.000000
; New Subcatchment
SUB-66	50YEARSTORM	1381	24.601716	40.000000	100.000000	1.000000	0.000000
; New Subcatchment
SUB-660	50YEARSTORM	103	2.955841	40.000000	100.000000	1.000000	0.000000
; New Subcatchment
SUB-662	50YEARSTORM	JCT-312	2.995253	40.000000	100.000000	1.000000	0.000000
; New Subcatchment
SUB-664	50YEARSTORM	103	1.733723	40.000000	100.000000	1.000000	0.000000
; New Subcatchment
SUB-666	50YEARSTORM	119	3.075619	40.000000	100.000000	1.000000	0.000000
; New Subcatchment
SUB-668	50YEARSTORM	104	1.804808	40.000000	100.000000	1.000000	0.000000
; New Subcatchment
SUB-670	50YEARSTORM	4782	8.396606	40.000000	100.000000	1.000000	0.000000
; New Subcatchment
SUB-672	50YEARSTORM	4969	3.653934	40.000000	100.000000	1.000000	0.000000
; New Subcatchment
SUB-674	50YEARSTORM	4988	7.774239	40.000000	100.000000	1.000000	0.000000
; New Subcatchment
SUB-676	50YEARSTORM	4859	9.313907	40.000000	100.000000	1.000000	0.000000
; New Subcatchment
SUB-678	50YEARSTORM	4860	6.528130	40.000000	100.000000	1.000000	0.000000
; New Subcatchment
SUB-68	50YEARSTORM	1375	5.703539	40.000000	100.000000	1.000000	0.000000
; New Subcatchment
SUB-680	50YEARSTORM	4774	1.906982	40.000000	100.000000	1.000000	0.000000
; New Subcatchment
SUB-682	50YEARSTORM	5048	8.181613	40.000000	100.000000	1.000000	0.000000