[TITLE]
Scenario Run :  BASE

[OPTIONS]
;Option and Files Scenario Set: BASE, Base Simulation Options
FLOW_UNITS	CFS
INFILTRATION	GREEN_AMPT
FLOW_ROUTING	DYNWAVE
ALLOW_PONDING	NO
DRY_DAYS	5.000000
SKIP_STEADY_STATE 	NO
IGNORE_RAINFALL	NO
IGNORE_SNOWMELT	NO
IGNORE_GROUNDWATER	NO
IGNORE_QUALITY	NO
FORCE_MAIN_EQUATION	H-W
LINK_OFFSETS	DEPTH
MIN_SLOPE	0.000000
START_DATE	02/11/2004
START_TIME	00:00:00
END_DATE	02/13/2004
END_TIME	00:00:00
REPORT_START_DATE	02/11/2004
REPORT_START_TIME	00:00:00
SWEEP_START	01/01
SWEEP_END	12/31
WET_STEP	0:00:30
DRY_STEP	24:00:00
ROUTING_STEP	30
REPORT_STEP	0:00:30
INERTIAL_DAMPING	PARTIAL
VARIABLE_STEP	0.750000
MINIMUM_STEP	0.5
LENGTHENING_STEP	1
MIN_SURFAREA	0.000000
NORMAL_FLOW_LIMITED	SLOPE

[FILES]

[RAINGAGES]
BVILLE 14 10YRGAGE	CUMULATIVE	0.100000	1.000000	TIMESERIES	BVILLE 14 10YR		

[HYDROGRAPHS]

[EVAPORATION]
MONTHLY	0.000000	0.000000	0.000000	0.000000	0.000000	0.000000	0.000000	0.000000	0.000000	0.000000	0.000000	0.000000
DRY_ONLY	NO

[TEMPERATURE]

[ADJUSTMENTS]

[SUBCATCHMENTS]
10424#1	BVILLE 14 10YRGAGE	10424	0.763000	28.300000	0.016681	8.958992	0.000000
10429#1	BVILLE 14 10YRGAGE	10429	1.414000	34.800000	0.016387	12.888104	0.000000
10430#1	BVILLE 14 10YRGAGE	10430	0.523000	45.800000	0.007646	12.671952	0.000000
10981#1	BVILLE 14 10YRGAGE	10981	0.781000	20.100000	0.005898	9.061984	0.000000
11143#1	BVILLE 14 10YRGAGE	11143	1.688000	20.200000	0.013428	13.849144	0.000000
11216#1	BVILLE 14 10YRGAGE	11216	1.552000	57.700000	0.010030	9.555296	0.000000
11217#1	BVILLE 14 10YRGAGE	11217	3.028000	39.100000	0.016668	10.743312	0.000000
11373#1	BVILLE 14 10YRGAGE	11373	0.607000	57.600000	0.008133	8.887160	0.000000
11374#1	BVILLE 14 10YRGAGE	11374	0.516000	45.800000	0.005803	8.058632	0.000000
11376#1	BVILLE 14 10YRGAGE	11376	2.270000	52.400000	0.017287	11.051304	0.000000
11389#1	BVILLE 14 10YRGAGE	11389	2.553000	65.800000	0.015335	6.859136	0.000000
11390#1	BVILLE 14 10YRGAGE	11390	0.918000	72.300000	0.007390	9.483464	0.000000
12718#1	BVILLE 14 10YRGAGE	12718	4.733000	32.700000	0.018963	5.485144	0.000000
13448#1	BVILLE 14 10YRGAGE	13448	1.502000	27.100000	0.009713	8.927832	0.000000
13487#1	BVILLE 14 10YRGAGE	13487	0.151000	0.000000	0.001680	13.597896	0.000000
13488#1	BVILLE 14 10YRGAGE	13488	0.059000	6.300000	0.000713	10.340200	0.000000
13643#1	BVILLE 14 10YRGAGE	13643	1.341000	34.000000	0.012857	8.784168	0.000000
14024#1	BVILLE 14 10YRGAGE	14024	2.382000	32.800000	0.014529	11.684672	0.000000
14024#2	BVILLE 14 10YRGAGE	14024	7.601000	64.700000	0.017103	8.744480	0.000000
14898#1	BVILLE 14 10YRGAGE	14898	3.264000	46.400000	0.020457	9.390640	0.000000
15305#1	BVILLE 14 10YRGAGE	15305	0.096000	99.300000	0.001886	3.769376	0.000000
15309#1	BVILLE 14 10YRGAGE	15309	0.573000	71.300000	0.008202	4.805856	0.000000
15318#1	BVILLE 14 10YRGAGE	15318	0.294000	20.200000	0.003054	5.602568	0.000000
15350#1	BVILLE 14 10YRGAGE	15350	0.730000	57.700000	0.005343	8.003200	0.000000
15350#2	BVILLE 14 10YRGAGE	15350	0.520000	77.800000	0.004425	6.625600	0.000000
15351#1	BVILLE 14 10YRGAGE	15351	0.548000	65.900000	0.009411	6.597392	0.000000
2799#1	BVILLE 14 10YRGAGE	2799	0.659000	17.000000	0.007948	11.966096	0.000000
2800#1	BVILLE 14 10YRGAGE	2800	1.375000	42.300000	0.012813	9.700928	0.000000
2804#1	BVILLE 14 10YRGAGE	2804	10.227000	27.100000	0.026884	8.195408	0.000000
2807#1	BVILLE 14 10YRGAGE	2807	10.307000	31.400000	0.026792	7.218624	0.000000
2809#1	BVILLE 14 10YRGAGE	2809	2.004000	19.800000	0.015265	9.063952	0.000000
2811#1	BVILLE 14 10YRGAGE	2811	2.040000	33.800000	0.017009	6.769592	0.000000
2812#1	BVILLE 14 10YRGAGE	2812	9.788000	17.800000	0.020546	5.884648	0.000000
2830#1	BVILLE 14 10YRGAGE	2830	3.853000	29.800000	0.016001	7.600416	0.000000
3004#1	BVILLE 14 10YRGAGE	3004	16.837000	23.500000	0.019743	6.492760	0.000000
3006#1	BVILLE 14 10YRGAGE	3006	12.217000	17.400000	0.020662	11.159216	0.000000
3008#1	BVILLE 14 10YRGAGE	3008	2.649000	36.100000	0.019631	5.403800	0.000000
3021#1	BVILLE 14 10YRGAGE	3021	0.370000	31.900000	0.006904	4.774368	0.000000
5157#1	BVILLE 14 10YRGAGE	5157	4.771000	34.600000	0.019629	8.402704	0.000000
5812#1	BVILLE 14 10YRGAGE	5812	6.231000	33.000000	0.019928	8.998680	0.000000
5814#1	BVILLE 14 10YRGAGE	5814	3.402000	42.500000	0.009551	9.919376	0.000000
5818#1	BVILLE 14 10YRGAGE	5818	2.195000	46.300000	0.012375	9.576288	0.000000
5822#1	BVILLE 14 10YRGAGE	5822	1.161000	61.600000	0.009138	10.975208	0.000000
5824#1	BVILLE 14 10YRGAGE	5824	11.656000	48.400000	0.025412	9.719296	0.000000
5840#1	BVILLE 14 10YRGAGE	5840	25.477000	19.700000	0.048348	9.392280	0.000000
5841#1	BVILLE 14 10YRGAGE	5841	0.639000	77.900000	0.023735	11.251712	0.000000
5845#1	BVILLE 14 10YRGAGE	5845	3.375000	22.500000	0.014327	10.176856	0.000000
5893#1	BVILLE 14 10YRGAGE	5893	1.790000	69.800000	0.010422	7.470528	0.000000
5894#1	BVILLE 14 10YRGAGE	5894	0.125000	22.200000	0.002534	10.352664	0.000000
5895#1	BVILLE 14 10YRGAGE	5895	1.063000	38.600000	0.013959	6.538352	0.000000
5896#1	BVILLE 14 10YRGAGE	5896	0.115000	100.000000	0.001743	3.027768	0.000000
5898#1	BVILLE 14 10YRGAGE	5898	2.557000	42.100000	0.014602	8.817952	0.000000
5899#1	BVILLE 14 10YRGAGE	5899	3.552000	61.800000	0.010675	8.565064	0.000000
5902#1	BVILLE 14 10YRGAGE	5902	2.465000	81.800000	0.013912	5.401504	0.000000
5911#1	BVILLE 14 10YRGAGE	5911	1.618000	78.000000	0.012901	5.264072	0.000000
5918#1	BVILLE 14 10YRGAGE	5918	0.843000	78.200000	0.005421	4.891464	0.000000
5921#1	BVILLE 14 10YRGAGE	5921	0.663000	96.800000	0.006747	3.434488	0.000000
5935#1	BVILLE 14 10YRGAGE	5935	9.108000	30.100000	0.023234	10.510760	0.000000
5993#1	BVILLE 14 10YRGAGE	5993	6.829000	26.500000	0.023828	9.810000	0.000000
5994#1	BVILLE 14 10YRGAGE	5994	1.793000	34.900000	0.017035	9.454928	0.000000
6012#1	BVILLE 14 10YRGAGE	6012	9.451000	38.500000	0.023830	8.689704	0.000000
6016#1	BVILLE 14 10YRGAGE	6016	2.482000	55.700000	0.017470	5.784280	0.000000
602#1	BVILLE 14 10YRGAGE	602	7.244000	52.600000	0.022428	6.285136	0.000000
6090#1	BVILLE 14 10YRGAGE	6090	0.170000	52.700000	0.002276	4.057688	0.000000
6123#1	BVILLE 14 10YRGAGE	6123	1.321000	60.000000	0.011573	5.320816	0.000000
6127#1	BVILLE 14 10YRGAGE	6127	0.889000	54.500000	0.006683	8.226568	0.000000
6130#1	BVILLE 14 10YRGAGE	6130	4.378000	63.500000	0.015910	5.880712	0.000000
6133#1	BVILLE 14 10YRGAGE	6133	0.634000	47.500000	0.009274	4.774696	0.000000
6139#1	BVILLE 14 10YRGAGE	6139	0.782000	66.900000	0.007923	6.764672	0.000000
6141#1	BVILLE 14 10YRGAGE	6141	1.280000	24.100000	0.009549	6.823056	0.000000
6144#1	BVILLE 14 10YRGAGE	6144	0.715000	54.600000	0.006447	4.683840	0.000000
6149#1	BVILLE 14 10YRGAGE	6149	1.408000	25.500000	0.013502	7.379672	0.000000
6150#1	BVILLE 14 10YRGAGE	6150	0.645000	48.100000	0.013937	3.585040	0.000000
6152#1	BVILLE 14 10YRGAGE	6152	2.222000	2.100000	0.014327	4.989864	0.000000
6154#1	BVILLE 14 10YRGAGE	6154	0.351000	4.600000	0.004196	4.652680	0.000000
6156#1	BVILLE 14 10YRGAGE	6156	0.149000	30.500000	0.002867	3.786432	0.000000
6158#1	BVILLE 14 10YRGAGE	6158	0.207000	42.100000	0.002941	4.042928	0.000000
6168#1	BVILLE 14 10YRGAGE	6168	3.376000	88.500000	0.009114	4.305656	0.000000
6171#1	BVILLE 14 10YRGAGE	6171	2.727000	90.700000	0.014005	3.195048	0.000000
6176#1	BVILLE 14 10YRGAGE	6176	0.287000	56.600000	0.002547	3.884832	0.000000
6178#1	BVILLE 14 10YRGAGE	6178	1.500000	62.700000	0.005901	5.370344	0.000000
6222#1	BVILLE 14 10YRGAGE	6222	8.457000	52.000000	0.019306	7.286192	0.000000
6238#1	BVILLE 14 10YRGAGE	6238	0.149000	83.800000	0.003422	5.460872	0.000000
6239#1	BVILLE 14 10YRGAGE	6239	1.664000	36.900000	0.006705	11.509192	0.000000
6246#1	BVILLE 14 10YRGAGE	6246	12.045000	38.600000	0.046030	13.770752	0.000000
6247#1	BVILLE 14 10YRGAGE	6247	2.813000	42.100000	0.015563	19.258848	0.000000
6248#1	BVILLE 14 10YRGAGE	6248	1.362000	44.300000	0.015291	7.283568	0.000000
6251#1	BVILLE 14 10YRGAGE	6251	1.113000	45.800000	0.012190	6.320888	0.000000
6253#1	BVILLE 14 10YRGAGE	6253	1.816000	42.900000	0.021186	7.667328	0.000000
6254#1	BVILLE 14 10YRGAGE	6254	7.792000	24.400000	0.032047	19.034496	0.000000
6258#1	BVILLE 14 10YRGAGE	6258	4.734000	36.700000	0.016942	12.595856	0.000000
6270#1	BVILLE 14 10YRGAGE	6270	1.888000	43.300000	0.008998	6.603296	0.000000
6272#1	BVILLE 14 10YRGAGE	6272	6.624000	52.000000	0.013797	5.186664	0.000000
6300#1	BVILLE 14 10YRGAGE	6300	3.043000	40.600000	0.012143	6.096536	0.000000
6305#1	BVILLE 14 10YRGAGE	6305	8.774000	30.600000	0.021258	8.759896	0.000000
6309#1	BVILLE 14 10YRGAGE	6309	7.659000	39.300000	0.012283	7.311776	0.000000
6316#1	BVILLE 14 10YRGAGE	6316	6.788000	53.100000	0.011271	6.548192	0.000000
6325#1	BVILLE 14 10YRGAGE	6325	5.571000	60.600000	0.014784	5.493672	0.000000
6327#1	BVILLE 14 10YRGAGE	6327	5.347000	55.900000	0.019627	7.243224	0.000000
6357#1	BVILLE 14 10YRGAGE	6357	0.673000	51.800000	0.003970	7.974336	0.000000
6360#1	BVILLE 14 10YRGAGE	6360	1.069000	42.500000	0.008498	8.488968	0.000000
6362#1	BVILLE 14 10YRGAGE	6362	11.808000	57.300000	0.023828	5.999448	0.000000
6371#1	BVILLE 14 10YRGAGE	6371	6.165000	47.400000	0.016691	7.081848	0.000000
6381#1	BVILLE 14 10YRGAGE	6381	5.330000	32.100000	0.029154	8.470928	0.000000
6487#1	BVILLE 14 10YRGAGE	6487	2.212000	65.300000	0.008791	8.784824	0.000000
6490#1	BVILLE 14 10YRGAGE	6490	1.498000	54.600000	0.008539	8.609672	0.000000
6499#1	BVILLE 14 10YRGAGE	6499	5.146000	36.000000	0.015748	8.562440	0.000000
6505#1	BVILLE 14 10YRGAGE	6505	0.637000	42.600000	0.007488	5.098104	0.000000
6509#1	BVILLE 14 10YRGAGE	6509	1.075000	46.500000	0.008038	6.901448	0.000000
6511#1	BVILLE 14 10YRGAGE	6511	0.570000	89.700000	0.009736	4.859648	0.000000
6514#1	BVILLE 14 10YRGAGE	6514	0.728000	56.300000	0.010392	5.951560	0.000000
6517#1	BVILLE 14 10YRGAGE	6517	2.912000	87.900000	0.014326	3.719848	0.000000
6545#1	BVILLE 14 10YRGAGE	6545	12.494000	64.500000	0.012121	5.008232	0.000000
6547#1	BVILLE 14 10YRGAGE	6547	2.909000	44.200000	0.009848	7.554168	0.000000
6558#1	BVILLE 14 10YRGAGE	6558	0.683000	56.700000	0.006862	10.763320	0.000000
6559#1	BVILLE 14 10YRGAGE	6559	1.741000	81.100000	0.012717	8.247888	0.000000
6566#1	BVILLE 14 10YRGAGE	6566	1.960000	76.200000	0.011339	8.756616	0.000000
6569#1	BVILLE 14 10YRGAGE	6569	3.447000	33.100000	0.014003	6.484232	0.000000
6608#1	BVILLE 14 10YRGAGE	6608	0.601000	48.300000	0.008630	7.208784	0.000000
6609#1	BVILLE 14 10YRGAGE	6609	0.458000	80.000000	0.008245	5.808224	0.000000
6612#1	BVILLE 14 10YRGAGE	6612	5.489000	35.200000	0.020522	7.901520	0.000000
6613#1	BVILLE 14 10YRGAGE	6613	5.311000	39.000000	0.016919	7.266184	0.000000
6614#1	BVILLE 14 10YRGAGE	6614	0.115000	34.200000	0.003167	4.945912	0.000000
6617#1	BVILLE 14 10YRGAGE	6617	2.329000	36.000000	0.009758	6.465208	0.000000
6618#1	BVILLE 14 10YRGAGE	6618	0.480000	66.300000	0.013509	5.216512	0.000000
6644#1	BVILLE 14 10YRGAGE	6644	1.835000	31.500000	0.026244	7.181560	0.000000
6645#1	BVILLE 14 10YRGAGE	6645	1.210000	43.500000	0.010239	7.999920	0.000000
6688#1	BVILLE 14 10YRGAGE	6688	0.622000	79.200000	0.007135	7.638464	0.000000
6690#1	BVILLE 14 10YRGAGE	6690	3.654000	24.500000	0.020613	10.757088	0.000000
6691#1	BVILLE 14 10YRGAGE	6691	0.845000	30.800000	0.006842	8.088152	0.000000
6697#1	BVILLE 14 10YRGAGE	6697	0.812000	38.600000	0.007095	6.765000	0.000000
6700#1	BVILLE 14 10YRGAGE	6700	2.020000	31.700000	0.011525	9.729464	0.000000
6707#1	BVILLE 14 10YRGAGE	6707	0.630000	46.400000	0.005261	3.859248	0.000000
6708#1	BVILLE 14 10YRGAGE	6708	6.520000	38.200000	0.021764	7.417720	0.000000
6717#1	BVILLE 14 10YRGAGE	6717	1.319000	47.900000	0.010722	6.587224	0.000000
6718#1	BVILLE 14 10YRGAGE	6718	4.186000	51.500000	0.014830	6.532448	0.000000
6725#1	BVILLE 14 10YRGAGE	6725	4.495000	43.100000	0.014026	8.317424	0.000000
6726#1	BVILLE 14 10YRGAGE	6726	2.440000	49.700000	0.015310	6.740400	0.000000
6728#1	BVILLE 14 10YRGAGE	6728	0.614000	68.600000	0.007971	9.604168	0.000000
6785#1	BVILLE 14 10YRGAGE	6785	0.627000	78.300000	0.008110	4.918688	0.000000
LA1-A#1	BVILLE 14 10YRGAGE	LA1-A	8.601000	45.800000	0.020891	12.123536	0.000000
LA2-A#1	BVILLE 14 10YRGAGE	LA2-A	16.405000	31.000000	0.032736	12.864816	0.000000
LA2-B#1	BVILLE 14 10YRGAGE	LA2-B	2.580000	59.800000	0.012409	5.969600	0.000000
LA2-C#1	BVILLE 14 10YRGAGE	LA2-C	7.591000	73.200000	0.028993	6.392064	0.000000
LA3-A#1	BVILLE 14 10YRGAGE	LA3-A	19.317000	10.400000	0.027364	17.511920	0.000000
LA3-B#1	BVILLE 14 10YRGAGE	LA3-B	13.322000	27.500000	0.045316	11.222192	0.000000
LA3-C#1	BVILLE 14 10YRGAGE	LA3-C	7.702000	44.800000	0.018388	10.699688	0.000000
LA3-D#1	BVILLE 14 10YRGAGE	LA3-D	1.506000	3.400000	0.009570	10.624576	0.000000
LA3-E#1	BVILLE 14 10YRGAGE	LA3-E	1.124000	22.800000	0.004819	14.326712	0.000000
LA3-F#1	BVILLE 14 10YRGAGE	LA3-F	1.560000	69.300000	0.011994	6.920800	0.000000
LA3-I#1	BVILLE 14 10YRGAGE	LA3-I	8.884000	4.900000	0.023599	9.674688	0.000000
LA3-J#1	BVILLE 14 10YRGAGE	LA3-J	0.670000	15.100000	0.003785	7.248800	0.000000
LA3-R#1	BVILLE 14 10YRGAGE	LA3-R	0.700000	2.200000	0.005373	7.714232	0.000000
LA3-S#1	BVILLE 14 10YRGAGE	LA3-S	1.254000	0.000000	0.004364	6.712848	0.000000
LA3-T#1	BVILLE 14 10YRGAGE	LA3-T	0.880000	7.500000	0.003986	7.708000	0.000000
LA3-U#1	BVILLE 14 10YRGAGE	LA3-U	1.860000	21.200000	0.012697	8.462400	0.000000
LA3-V#1	BVILLE 14 10YRGAGE	LA3-V	1.120000	54.100000	0.003175	11.578400	0.000000
LA3-W#1	BVILLE 14 10YRGAGE	LA3-W	1.708000	82.900000	0.014348	4.847512	0.000000
LA3-X#1	BVILLE 14 10YRGAGE	LA3-X	0.705000	62.400000	0.006355	6.354344	0.000000
LA4-A#1	BVILLE 14 10YRGAGE	LA4-A	333.773000	6.200000	0.037925	9.514296	0.000000
LA4-B#1	BVILLE 14 10YRGAGE	LA4-B	37.990000	15.000000	0.048673	4.657600	0.000000
LA4-C#1	BVILLE 14 10YRGAGE	LA4-C	20.120000	1.600000	0.016320	10.200800	0.000000
LA4-D#1	BVILLE 14 10YRGAGE	LA4-D	10.330000	5.100000	0.017494	8.462400	0.000000
LA4-E#1	BVILLE 14 10YRGAGE	LA4-E	2.450000	0.100000	0.007678	10.004000	0.000000
LA4-F#1	BVILLE 14 10YRGAGE	LA4-F	3.766000	0.500000	0.006795	11.331088	0.000000
LA4-G#1	BVILLE 14 10YRGAGE	LA4-G	13.960000	1.200000	0.015013	12.792000	0.000000
LA5-A#1	BVILLE 14 10YRGAGE	LA5-A	6.677000	15.600000	0.017814	13.709088	0.000000
LA6-A#1	BVILLE 14 10YRGAGE	LA6-A	7.753000	15.700000	0.015106	13.878664	0.000000
LA7-A#1	BVILLE 14 10YRGAGE	LA7-A	3.490000	11.300000	0.010745	20.303200	0.000000
NODE694#1	BVILLE 14 10YRGAGE	NODE694	4.960000	55.300000	0.015376	15.580000	0.000000
SP8-B#1	BVILLE 14 10YRGAGE	SP8-B	5.706000	45.300000	0.022293	7.825096	0.000000
SP8-C#1	BVILLE 14 10YRGAGE	SP8-C	1.617000	2.900000	0.007071	14.285712	0.000000

[SUBAREAS]
10424#1	0.014000	0.200000	0.030000	0.400000	0.000000	OUTLET
10429#1	0.014000	0.200000	0.030000	0.400000	0.000000	OUTLET
10430#1	0.014000	0.200000	0.030000	0.400000	0.000000	OUTLET
10981#1	0.014000	0.200000	0.030000	0.400000	0.000000	OUTLET
11143#1	0.014000	0.200000	0.030000	0.400000	0.000000	OUTLET
11216#1	0.014000	0.200000	0.030000	0.400000	0.000000	OUTLET
11217#1	0.014000	0.200000	0.030000	0.400000	0.000000	OUTLET
11373#1	0.014000	0.200000	0.030000	0.400000	0.000000	OUTLET
11374#1	0.014000	0.200000	0.030000	0.400000	0.000000	OUTLET
11376#1	0.014000	0.200000	0.030000	0.400000	0.000000	OUTLET
11389#1	0.014000	0.200000	0.030000	0.400000	0.000000	OUTLET
11390#1	0.014000	0.200000	0.030000	0.400000	0.000000	OUTLET
12718#1	0.014000	0.200000	0.030000	0.400000	0.000000	OUTLET
13448#1	0.014000	0.200000	0.030000	0.400000	0.000000	OUTLET
13487#1	0.014000	0.200000	0.030000	0.400000	0.000000	OUTLET
13488#1	0.014000	0.200000	0.030000	0.400000	0.000000	OUTLET
13643#1	0.014000	0.200000	0.030000	0.400000	0.000000	OUTLET
14024#1	0.014000	0.200000	0.030000	0.400000	0.000000	OUTLET
14024#2	0.014000	0.200000	0.030000	0.400000	0.000000	OUTLET
14898#1	0.014000	0.200000	0.030000	0.400000	0.000000	OUTLET
15305#1	0.014000	0.200000	0.030000	0.400000	0.000000	OUTLET
15309#1	0.014000	0.200000	0.030000	0.400000	0.000000	OUTLET
15318#1	0.014000	0.200000	0.030000	0.400000	0.000000	OUTLET
15350#1	0.014000	0.200000	0.030000	0.400000	0.000000	OUTLET
15350#2	0.014000	0.200000	0.030000	0.400000	0.000000	OUTLET
15351#1	0.014000	0.200000	0.030000	0.400000	0.000000	OUTLET
2799#1	0.014000	0.200000	0.030000	0.400000	0.000000	OUTLET
2800#1	0.014000	0.200000	0.030000	0.400000	0.000000	OUTLET
2804#1	0.014000	0.200000	0.030000	0.400000	0.000000	OUTLET
2807#1	0.014000	0.200000	0.030000	0.400000	0.000000	OUTLET
2809#1	0.014000	0.200000	0.030000	0.400000	0.000000	OUTLET
2811#1	0.014000	0.200000	0.030000	0.400000	0.000000	OUTLET
2812#1	0.014000	0.200000	0.030000	0.400000	0.000000	OUTLET
2830#1	0.014000	0.200000	0.030000	0.400000	0.000000	OUTLET
3004#1	0.014000	0.200000	0.030000	0.400000	0.000000	OUTLET
3006#1	0.014000	0.200000	0.030000	0.400000	0.000000	OUTLET
3008#1	0.014000	0.200000	0.030000	0.400000	0.000000	OUTLET
3021#1	0.014000	0.200000	0.030000	0.400000	0.000000	OUTLET
5157#1	0.014000	0.200000	0.030000	0.400000	0.000000	OUTLET
5812#1	0.014000	0.200000	0.030000	0.400000	0.000000	OUTLET
5814#1	0.014000	0.200000	0.030000	0.400000	0.000000	OUTLET
5818#1	0.014000	0.200000	0.030000	0.400000	0.000000	OUTLET
5822#1	0.014000	0.200000	0.030000	0.400000	0.000000	OUTLET
5824#1	0.014000	0.200000	0.030000	0.400000	0.000000	OUTLET
5840#1	0.014000	0.200000	0.030000	0.400000	0.000000	OUTLET
5841#1	0.014000	0.200000	0.030000	0.400000	0.000000	OUTLET
5845#1	0.014000	0.200000	0.030000	0.400000	0.000000	OUTLET
5893#1	0.014000	0.200000	0.030000	0.400000	0.000000	OUTLET
5894#1	0.014000	0.200000	0.030000	0.400000	0.000000	OUTLET
5895#1	0.014000	0.200000	0.030000	0.400000	0.000000	OUTLET
5896#1	0.014000	0.200000	0.030000	0.400000	0.000000	OUTLET
5898#1	0.014000	0.200000	0.030000	0.400000	0.000000	OUTLET
5899#1	0.014000	0.200000	0.030000	0.400000	0.000000	OUTLET
5902#1	0.014000	0.200000	0.030000	0.400000	0.000000	OUTLET
5911#1	0.014000	0.200000	0.030000	0.400000	0.000000	OUTLET
5918#1	0.014000	0.200000	0.030000	0.400000	0.000000	OUTLET
5921#1	0.014000	0.200000	0.030000	0.400000	0.000000	OUTLET
5935#1	0.014000	0.200000	0.030000	0.400000	0.000000	OUTLET
5993#1	0.014000	0.200000	0.030000	0.400000	0.000000	OUTLET
5994#1	0.014000	0.200000	0.030000	0.400000	0.000000	OUTLET
6012#1	0.014000	0.200000	0.030000	0.400000	0.000000	OUTLET
6016#1	0.014000	0.200000	0.030000	0.400000	0.000000	OUTLET
602#1	0.014000	0.200000	0.030000	0.400000	0.000000	OUTLET
6090#1	0.014000	0.200000	0.030000	0.400000	0.000000	OUTLET
6123#1	0.014000	0.200000	0.030000	0.400000	0.000000	OUTLET
6127#1	0.014000	0.200000	0.030000	0.400000	0.000000	OUTLET
6130#1	0.014000	0.200000	0.030000	0.400000	0.000000	OUTLET
6133#1	0.014000	0.200000	0.030000	0.400000	0.000000	OUTLET
6139#1	0.014000	0.200000	0.030000	0.400000	0.000000	OUTLET
6141#1	0.014000	0.200000	0.030000	0.400000	0.000000	OUTLET
6144#1	0.014000	0.200000	0.030000	0.400000	0.000000	OUTLET
6149#1	0.014000	0.200000	0.030000	0.400000	0.000000	OUTLET
6150#1	0.014000	0.200000	0.030000	0.400000	0.000000	OUTLET
6152#1	0.014000	0.200000	0.030000	0.400000	0.000000	OUTLET
6154#1	0.014000	0.200000	0.030000	0.400000	0.000000	OUTLET
6156#1	0.014000	0.200000	0.030000	0.400000	0.000000	OUTLET
6158#1	0.014000	0.200000	0.030000	0.400000	0.000000	OUTLET
6168#1	0.014000	0.200000	0.030000	0.400000	0.000000	OUTLET
6171#1	0.014000	0.200000	0.030000	0.400000	0.000000	OUTLET
6176#1	0.014000	0.200000	0.030000	0.400000	0.000000	OUTLET
6178#1	0.014000	0.200000	0.030000	0.400000	0.000000	OUTLET
6222#1	0.014000	0.200000	0.030000	0.400000	0.000000	OUTLET
6238#1	0.014000	0.200000	0.030000	0.400000	0.000000	OUTLET
6239#1	0.014000	0.200000	0.030000	0.400000	0.000000	OUTLET
6246#1	0.014000	0.200000	0.030000	0.400000	0.000000	OUTLET
6247#1	0.014000	0.200000	0.030000	0.400000	0.000000	OUTLET
6248#1	0.014000	0.200000	0.030000	0.400000	0.000000	OUTLET
6251#1	0.014000	0.200000	0.030000	0.400000	0.000000	OUTLET
6253#1	0.014000	0.200000	0.030000	0.400000	0.000000	OUTLET
6254#1	0.014000	0.200000	0.030000	0.400000	0.000000	OUTLET
6258#1	0.014000	0.200000	0.030000	0.400000	0.000000	OUTLET
6270#1	0.014000	0.200000	0.030000	0.400000	0.000000	OUTLET
6272#1	0.014000	0.200000	0.030000	0.400000	0.000000	OUTLET
6300#1	0.014000	0.200000	0.030000	0.400000	0.000000	OUTLET
6305#1	0.014000	0.200000	0.030000	0.400000	0.000000	OUTLET
6309#1	0.014000	0.200000	0.030000	0.400000	0.000000	OUTLET
6316#1	0.014000	0.200000	0.030000	0.400000	0.000000	OUTLET
6325#1	0.014000	0.200000	0.030000	0.400000	0.000000	OUTLET
6327#1	0.014000	0.200000	0.030000	0.400000	0.000000	OUTLET
6357#1	0.014000	0.200000	0.030000	0.400000	0.000000	OUTLET
6360#1	0.014000	0.200000	0.030000	0.400000	0.000000	OUTLET
6362#1	0.014000	0.200000	0.030000	0.400000	0.000000	OUTLET
6371#1	0.014000	0.200000	0.030000	0.400000	0.000000	OUTLET
6381#1	0.014000	0.200000	0.030000	0.400000	0.000000	OUTLET
6487#1	0.014000	0.200000	0.030000	0.400000	0.000000	OUTLET
6490#1	0.014000	0.200000	0.030000	0.400000	0.000000	OUTLET
6499#1	0.014000	0.200000	0.030000	0.400000	0.000000	OUTLET
6505#1	0.014000	0.200000	0.030000	0.400000	0.000000	OUTLET
6509#1	0.014000	0.200000	0.030000	0.400000	0.000000	OUTLET
6511#1	0.014000	0.200000	0.030000	0.400000	0.000000	OUTLET
6514#1	0.014000	0.200000	0.030000	0.400000	0.000000	OUTLET
6517#1	0.014000	0.200000	0.030000	0.400000	0.000000	OUTLET
6545#1	0.014000	0.200000	0.030000	0.400000	0.000000	OUTLET
6547#1	0.014000	0.200000	0.030000	0.400000	0.000000	OUTLET
6558#1	0.014000	0.200000	0.030000	0.400000	0.000000	OUTLET
6559#1	0.014000	0.200000	0.030000	0.400000	0.000000	OUTLET
6566#1	0.014000	0.200000	0.030000	0.400000	0.000000	OUTLET
6569#1	0.014000	0.200000	0.030000	0.400000	0.000000	OUTLET
6608#1	0.014000	0.200000	0.030000	0.400000	0.000000	OUTLET
6609#1	0.014000	0.200000	0.030000	0.400000	0.000000	OUTLET
6612#1	0.014000	0.200000	0.030000	0.400000	0.000000	OUTLET
6613#1	0.014000	0.200000	0.030000	0.400000	0.000000	OUTLET
6614#1	0.014000	0.200000	0.030000	0.400000	0.000000	OUTLET
6617#1	0.014000	0.200000	0.030000	0.400000	0.000000	OUTLET
6618#1	0.014000	0.200000	0.030000	0.400000	0.000000	OUTLET
6644#1	0.014000	0.200000	0.030000	0.400000	0.000000	OUTLET
6645#1	0.014000	0.200000	0.030000	0.400000	0.000000	OUTLET
6688#1	0.014000	0.200000	0.030000	0.400000	0.000000	OUTLET
6690#1	0.014000	0.200000	0.030000	0.400000	0.000000	OUTLET
6691#1	0.014000	0.200000	0.030000	0.400000	0.000000	OUTLET
6697#1	0.014000	0.200000	0.030000	0.400000	0.000000	OUTLET
6700#1	0.014000	0.200000	0.030000	0.400000	0.000000	OUTLET
6707#1	0.014000	0.200000	0.030000	0.400000	0.000000	OUTLET
6708#1	0.014000	0.200000	0.030000	0.400000	0.000000	OUTLET
6717#1	0.014000	0.200000	0.030000	0.400000	0.000000	OUTLET
6718#1	0.014000	0.200000	0.030000	0.400000	0.000000	OUTLET
6725#1	0.014000	0.200000	0.030000	0.400000	0.000000	OUTLET
6726#1	0.014000	0.200000	0.030000	0.400000	0.000000	OUTLET
6728#1	0.014000	0.200000	0.030000	0.400000	0.000000	OUTLET
6785#1	0.014000	0.200000	0.030000	0.400000	0.000000	OUTLET
LA1-A#1	0.014000	0.200000	0.030000	0.400000	0.000000	OUTLET
LA2-A#1	0.014000	0.200000	0.030000	0.400000	0.000000	OUTLET
LA2-B#1	0.014000	0.200000	0.030000	0.400000	0.000000	OUTLET
LA2-C#1	0.014000	0.200000	0.030000	0.400000	0.000000	OUTLET
LA3-A#1	0.014000	0.200000	0.030000	0.400000	0.000000	OUTLET
LA3-B#1	0.014000	0.200000	0.030000	0.400000	0.000000	OUTLET
LA3-C#1	0.014000	0.200000	0.030000	0.400000	0.000000	OUTLET
LA3-D#1	0.014000	0.200000	0.030000	0.400000	0.000000	OUTLET
LA3-E#1	0.014000	0.200000	0.030000	0.400000	0.000000	OUTLET
LA3-F#1	0.014000	0.200000	0.030000	0.400000	0.000000	OUTLET
LA3-I#1	0.014000	0.200000	0.030000	0.400000	0.000000	OUTLET
LA3-J#1	0.014000	0.200000	0.030000	0.400000	0.000000	OUTLET
LA3-R#1	0.014000	0.200000	0.030000	0.400000	0.000000	OUTLET
LA3-S#1	0.014000	0.200000	0.030000	0.400000	0.000000	OUTLET
LA3-T#1	0.014000	0.200000	0.030000	0.400000	0.000000	OUTLET
LA3-U#1	0.014000	0.200000	0.030000	0.400000	0.000000	OUTLET
LA3-V#1	0.014000	0.200000	0.030000	0.400000	0.000000	OUTLET
LA3-W#1	0.014000	0.200000	0.030000	0.400000	0.000000	OUTLET
LA3-X#1	0.014000	0.200000	0.030000	0.400000	0.000000	OUTLET
LA4-A#1	0.014000	0.200000	0.030000	0.400000	0.000000	OUTLET
LA4-B#1	0.014000	0.200000	0.030000	0.400000	0.000000	OUTLET
LA4-C#1	0.014000	0.200000	0.030000	0.400000	0.000000	OUTLET
LA4-D#1	0.014000	0.200000	0.030000	0.400000	0.000000	OUTLET
LA4-E#1	0.014000	0.200000	0.030000	0.400000	0.000000	OUTLET
LA4-F#1	0.014000	0.200000	0.030000	0.400000	0.000000	OUTLET
LA4-G#1	0.014000	0.200000	0.030000	0.400000	0.000000	OUTLET
LA5-A#1	0.014000	0.200000	0.030000	0.400000	0.000000	OUTLET
LA6-A#1	0.014000	0.200000	0.030000	0.400000	0.000000	OUTLET
LA7-A#1	0.014000	0.200000	0.030000	0.400000	0.000000	OUTLET
NODE694#1	0.014000	0.200000	0.030000	0.400000	0.000000	OUTLET
SP8-B#1	0.014000	0.200000	0.030000	0.400000	0.000000	OUTLET
SP8-C#1	0.014000	0.200000	0.030000	0.400000	0.000000	OUTLET

[INFILTRATION]
10424#1	4.330000	0.860000	0.250000
10429#1	4.330000	0.860000	0.250000
10430#1	4.330000	0.860000	0.250000
10981#1	4.330000	0.860000	0.250000
11143#1	4.330000	0.860000	0.250000
11216#1	4.330000	0.860000	0.250000
11217#1	4.330000	0.860000	0.250000
11373#1	4.330000	0.860000	0.250000
11374#1	4.330000	0.860000	0.250000
11376#1	4.330000	0.860000	0.250000
11389#1	4.330000	0.860000	0.250000
11390#1	4.330000	0.860000	0.250000
12718#1	4.330000	0.860000	0.250000
13448#1	4.330000	0.860000	0.250000
13487#1	4.330000	0.860000	0.250000
13488#1	4.330000	0.860000	0.250000
13643#1	4.330000	0.860000	0.250000
14024#1	4.330000	0.860000	0.250000
14024#2	4.330000	0.860000	0.250000
14898#1	4.330000	0.860000	0.250000
15305#1	4.330000	0.860000	0.250000
15309#1	4.330000	0.860000	0.250000
15318#1	4.330000	0.860000	0.250000
15350#1	4.330000	0.860000	0.250000
15350#2	4.330000	0.860000	0.250000
15351#1	4.330000	0.860000	0.250000
2799#1	4.330000	0.860000	0.250000
2800#1	4.330000	0.860000	0.250000
2804#1	4.330000	0.860000	0.250000
2807#1	4.330000	0.860000	0.250000
2809#1	4.330000	0.860000	0.250000
2811#1	4.330000	0.860000	0.250000
2812#1	4.330000	0.860000	0.250000
2830#1	4.330000	0.860000	0.250000
3004#1	4.330000	0.860000	0.250000
3006#1	4.330000	0.860000	0.250000
3008#1	4.330000	0.860000	0.250000
3021#1	4.330000	0.860000	0.250000
5157#1	4.330000	0.860000	0.250000
5812#1	4.330000	0.860000	0.250000
5814#1	4.330000	0.860000	0.250000
5818#1	4.330000	0.860000	0.250000
5822#1	4.330000	0.860000	0.250000
5824#1	4.330000	0.860000	0.250000
5840#1	4.330000	0.860000	0.250000
5841#1	4.330000	0.860000	0.250000
5845#1	4.330000	0.860000	0.250000
5893#1	4.330000	0.860000	0.250000
5894#1	4.330000	0.860000	0.250000
5895#1	4.330000	0.860000	0.250000
5896#1	4.330000	0.860000	0.250000
5898#1	4.330000	0.860000	0.250000
5899#1	4.330000	0.860000	0.250000
5902#1	4.330000	0.860000	0.250000
5911#1	4.330000	0.860000	0.250000
5918#1	4.330000	0.860000	0.250000
5921#1	4.330000	0.860000	0.250000
5935#1	4.330000	0.860000	0.250000
5993#1	4.330000	0.860000	0.250000
5994#1	4.330000	0.860000	0.250000
6012#1	4.330000	0.860000	0.250000
6016#1	4.330000	0.860000	0.250000
602#1	4.330000	0.860000	0.250000
6090#1	4.330000	0.860000	0.250000
6123#1	4.330000	0.860000	0.250000
6127#1	4.330000	0.860000	0.250000
6130#1	4.330000	0.860000	0.250000
6133#1	4.330000	0.860000	0.250000
6139#1	4.330000	0.860000	0.250000
6141#1	4.330000	0.860000	0.250000
6144#1	4.330000	0.860000	0.250000
6149#1	4.330000	0.860000	0.250000
6150#1	4.330000	0.860000	0.250000
6152#1	4.330000	0.860000	0.250000
6154#1	4.330000	0.860000	0.250000
6156#1	4.330000	0.860000	0.250000
6158#1	4.330000	0.860000	0.250000
6168#1	4.330000	0.860000	0.250000
6171#1	4.330000	0.860000	0.250000
6176#1	4.330000	0.860000	0.250000
6178#1	4.330000	0.860000	0.250000
6222#1	4.330000	0.860000	0.250000
6238#1	4.330000	0.860000	0.250000
6239#1	4.330000	0.860000	0.250000
6246#1	4.330000	0.860000	0.250000
6247#1	4.330000	0.860000	0.250000
6248#1	4.330000	0.860000	0.250000
6251#1	4.330000	0.860000	0.250000
6253#1	4.330000	0.860000	0.250000
6254#1	4.330000	0.860000	0.250000
6258#1	4.330000	0.860000	0.250000
6270#1	4.330000	0.860000	0.250000
6272#1	4.330000	0.860000	0.250000
6300#1	4.330000	0.860000	0.250000
6305#1	4.330000	0.860000	0.250000
6309#1	4.330000	0.860000	0.250000
6316#1	4.330000	0.860000	0.250000
6325#1	4.330000	0.860000	0.250000
6327#1	4.330000	0.860000	0.250000
6357#1	4.330000	0.860000	0.250000
6360#1	4.330000	0.860000	0.250000
6362#1	4.330000	0.860000	0.250000
6371#1	4.330000	0.860000	0.250000
6381#1	4.330000	0.860000	0.250000
6487#1	4.330000	0.860000	0.250000
6490#1	4.330000	0.860000	0.250000
6499#1	4.330000	0.860000	0.250000
6505#1	4.330000	0.860000	0.250000
6509#1	4.330000	0.860000	0.250000
6511#1	4.330000	0.860000	0.250000
6514#1	4.330000	0.860000	0.250000
6517#1	4.330000	0.860000	0.250000
6545#1	4.330000	0.860000	0.250000
6547#1	4.330000	0.860000	0.250000
6558#1	4.330000	0.860000	0.250000
6559#1	4.330000	0.860000	0.250000
6566#1	4.330000	0.860000	0.250000
6569#1	4.330000	0.860000	0.250000
6608#1	4.330000	0.860000	0.250000
6609#1	4.330000	0.860000	0.250000
6612#1	4.330000	0.860000	0.250000
6613#1	4.330000	0.860000	0.250000
6614#1	4.330000	0.860000	0.250000
6617#1	4.330000	0.860000	0.250000
6618#1	4.330000	0.860000	0.250000
6644#1	4.330000	0.860000	0.250000
6645#1	4.330000	0.860000	0.250000
6688#1	4.330000	0.860000	0.250000
6690#1	4.330000	0.860000	0.250000
6691#1	4.330000	0.860000	0.250000
6697#1	4.330000	0.860000	0.250000
6700#1	4.330000	0.860000	0.250000
6707#1	4.330000	0.860000	0.250000
6708#1	4.330000	0.860000	0.250000
6717#1	4.330000	0.860000	0.250000
6718#1	4.330000	0.860000	0.250000
6725#1	4.330000	0.860000	0.250000
6726#1	4.330000	0.860000	0.250000
6728#1	4.330000	0.860000	0.250000
6785#1	4.330000	0.860000	0.250000
LA1-A#1	4.330000	0.860000	0.250000
LA2-A#1	4.330000	0.860000	0.250000
LA2-B#1	4.330000	0.860000	0.250000
LA2-C#1	4.330000	0.860000	0.250000
LA3-A#1	4.330000	0.860000	0.250000
LA3-B#1	4.330000	0.860000	0.250000
LA3-C#1	4.330000	0.860000	0.250000
LA3-D#1	4.330000	0.860000	0.250000
LA3-E#1	4.330000	0.860000	0.250000
LA3-F#1	4.330000	0.860000	0.250000
LA3-I#1	4.330000	0.860000	0.250000
LA3-J#1	4.330000	0.860000	0.250000
LA3-R#1	4.330000	0.860000	0.250000
LA3-S#1	4.330000	0.860000	0.250000
LA3-T#1	4.330000	0.860000	0.250000