[OPTIONS]
;Option and Files Scenario Set: BASE
FLOW_UNITS	GPM
INFILTRATION	HORTON
FLOW_ROUTING	DYNWAVE
ALLOW_PONDING	YES
DRY_DAYS	5.000000
SKIP_STEADY_STATE 	NO
IGNORE_RAINFALL	NO
IGNORE_SNOWMELT	NO
IGNORE_GROUNDWATER	NO
IGNORE_QUALITY	NO
FORCE_MAIN_EQUATION	H-W
LINK_OFFSETS	DEPTH
MIN_SLOPE	0.000000
START_DATE	01/01/2002
START_TIME	00:00
END_DATE	01/01/2002
END_TIME	23:00
REPORT_START_DATE	01/01/2002
REPORT_START_TIME	00:00
SWEEP_START	01/01
SWEEP_END	12/31
WET_STEP	00:05:00
DRY_STEP	01:00:00
ROUTING_STEP	60
REPORT_STEP	00:05:00
INERTIAL_DAMPING	NONE
VARIABLE_STEP	0.750000
MINIMUM_STEP	0.000000
LENGTHENING_STEP	0
MIN_SURFAREA	0.000000
NORMAL_FLOW_LIMITED	SLOPE
MAX_TRIALS	4
HEAD_TOLERANCE	0.005000

[FILES]

[RAINGAGES]

[HYDROGRAPHS]

[TEMPERATURE]

[ADJUSTMENTS]

[SUBCATCHMENTS]

[SUBAREAS]

[INFILTRATION]

[AQUIFERS]

[GROUNDWATER]

[GWF]

[SNOWPACKS]

[JUNCTIONS]
; New Manhole
101	769.240000	5.370000	0.000000	0.000000	0.000000
; New Manhole
103	765.700000	4.300000	0.000000	1000.000000	0.000000
; New Manhole
107	761.580000	8.420000	0.000000	0.000000	0.000000
; Chamber
50	730.530000	5.970000	0.000000	1000.000000	0.000000
; New Manhole
85	728.270000	6.030000	0.000000	1000.000000	0.000000
; New Manhole
89	780.000000	6.420000	0.000000	0.000000	0.000000
; New Manhole
91	785.590000	6.180000	0.000000	0.000000	0.000000
; New Manhole
93	788.000000	5.790000	0.000000	0.000000	0.000000
; New Manhole
95	780.840000	7.840000	0.000000	0.000000	0.000000
; New Manhole
97	775.750000	9.950000	0.000000	0.000000	0.000000
; New Manhole
99	767.110000	7.580000	0.000000	0.000000	0.000000
MH1	794.703333	3.760247	0.000000	0.000000	0.000000
MH10	818.448718	11.134952	0.000000	0.000000	0.000000
MH11	814.633333	11.337033	0.000000	0.000000	0.000000
MH12	810.833333	9.535835	0.000000	0.000000	0.000000
MH13	808.233333	7.223922	0.000000	0.000000	0.000000
MH14	807.333333	6.352680	0.000000	0.000000	0.000000
MH16	788.410000	11.025046	0.000000	0.000000	0.000000
MH17	789.483000	12.751811	0.000000	0.000000	0.000000
MH18	790.990000	6.734842	0.000000	0.000000	0.000000
MH19	795.583000	8.287182	0.000000	0.000000	0.000000
MH20	796.873000	6.821595	0.000000	0.000000	0.000000
MH21	803.330000	4.083646	0.000000	0.000000	0.000000
MH22	806.290000	3.685159	0.000000	0.000000	0.000000
MH23	800.978693	3.356667	0.000000	0.000000	0.000000
MH24	806.153333	3.845302	0.000000	0.000000	0.000000
MH25	803.823333	7.676667	0.000000	0.000000	0.000000
MH26	799.013333	4.487541	0.000000	0.000000	0.000000
MH27	797.213333	11.572697	0.000000	0.000000	0.000000
MH28	796.093333	11.249153	0.000000	0.000000	0.000000
MH29	794.503333	11.940496	0.000000	0.000000	0.000000
MH3	830.533333	6.621220	0.000000	0.000000	0.000000
MH30	793.073333	7.731993	0.000000	0.000000	0.000000
MH31	792.053333	6.989374	0.000000	0.000000	0.000000
MH32	790.703333	8.389499	0.000000	0.000000	0.000000
MH33	789.963333	6.005671	0.000000	0.000000	0.000000
MH34	788.993333	8.759225	0.000000	0.000000	0.000000
MH35	787.803333	12.889371	0.000000	0.000000	0.000000
MH36	787.173333	11.817309	0.000000	0.000000	0.000000
MH37	772.373333	6.426158	0.000000	0.000000	0.000000
MH38	763.263333	7.491710	0.000000	0.000000	0.000000
MH39	761.823333	9.319871	0.000000	0.000000	0.000000
MH4	823.733333	7.491428	0.000000	0.000000	0.000000
MH40	759.463333	7.029393	0.000000	0.000000	0.000000
MH41	758.173333	8.867501	0.000000	0.000000	0.000000
MH42	756.293333	7.426942	0.000000	0.000000	0.000000
MH43	746.523333	12.906256	0.000000	0.000000	0.000000
MH44	744.720000	9.881581	0.000000	0.000000	0.000000
MH45	743.283333	8.479383	0.000000	0.000000	0.000000
MH46	739.253333	10.149829	0.000000	0.000000	0.000000
MH47	738.093333	8.225671	0.000000	0.000000	0.000000
MH48	806.322343	4.328906	0.000000	0.000000	0.000000
MH49	803.685121	4.528553	0.000000	0.000000	0.000000
MH5	813.133333	10.273002	0.000000	0.000000	0.000000
MH50	798.486061	4.807967	0.000000	0.000000	0.000000
MH51	794.206737	5.057085	0.000000	0.000000	0.000000
MH52	788.900183	5.972933	0.000000	0.000000	0.000000
MH53	782.201797	5.936564	0.000000	0.000000	0.000000
MH54	782.693333	4.151040	0.000000	0.000000	0.000000
MH55	798.740729	3.356667	0.000000	0.000000	0.000000
MH56	794.603333	4.373162	0.000000	0.000000	0.000000
MH58	795.771018	4.602987	0.000000	0.000000	0.000000
MH59	805.603000	4.774690	0.000000	0.000000	0.000000
MH6	806.333333	7.835058	0.000000	0.000000	0.000000
MH60	808.833000	6.600701	0.000000	0.000000	0.000000
MH61	810.711000	6.031747	0.000000	0.000000	0.000000
MH62	813.773333	5.356984	0.000000	0.000000	0.000000
MH63	813.383333	5.359994	0.000000	0.000000	0.000000
MH64	811.443333	6.321730	0.000000	0.000000	0.000000
MH65	804.273333	6.906289	0.000000	0.000000	0.000000
MH66	802.993333	5.951389	0.000000	0.000000	0.000000
MH67	812.893333	4.670447	0.000000	0.000000	0.000000
MH68	807.353333	4.729324	0.000000	0.000000	0.000000
MH69	805.373333	6.317911	0.000000	0.000000	0.000000
MH7	804.363333	6.788814	0.000000	0.000000	0.000000
MH70	800.330000	4.358523	0.000000	0.000000	0.000000
MH72	743.190000	6.606976	0.000000	0.000000	0.000000
MH73	744.693000	8.159373	0.000000	0.000000	0.000000
MH74	746.233000	5.097000	0.000000	0.000000	0.000000
MH75	750.533000	4.765372	0.000000	0.000000	0.000000
MH76	745.833333	5.813858	0.000000	0.000000	0.000000
MH77	743.333333	5.998062	0.000000	0.000000	0.000000
MH78	735.333333	5.713806	0.000000	0.000000	0.000000
MH8	800.463333	8.696241	0.000000	0.000000	0.000000
MH80	735.833333	9.558393	0.000000	0.000000	0.000000
MH81	726.333333	6.910739	0.000000	0.000000	0.000000
MH83	750.527614	7.869665	0.000000	0.000000	0.000000
MH84	746.039000	9.418302	0.000000	0.000000	0.000000
MH85	778.333333	5.453008	0.000000	0.000000	0.000000
MH86	767.383333	5.771271	0.000000	0.000000	0.000000
MH87	752.483333	7.166567	0.000000	0.000000	0.000000
MH88	748.283333	8.089557	0.000000	0.000000	0.000000
MH89	746.623333	8.486476	0.000000	0.000000	0.000000
MH9	795.661066	7.073019	0.000000	0.000000	0.000000
MH90	743.420377	6.348994	0.000000	0.000000	0.000000
MH91	747.650129	5.745780	0.000000	0.000000	0.000000
; PS1, Chamber Manhole
PS1C	793.460000	5.000000	0.000000	1000.000000	0.000000
; PS2, Chamber
PS2	795.270000	5.000000	0.000000	1000.000000	0.000000
; Chamber for PS3
PS3CHAMBER	790.200000	5.000000	0.000000	1000.000000	0.000000
PS5-CHAMBER	744.670000	4.330000	0.000000	1000.000000	0.000000

[OUTFALLS]
; New Manhole
105	745.000000	FREE	NO

[DIVIDERS]

[STORAGE]
; PS2, Wet Well
9002	783.810000	9.000000	4.500000	FUNCTIONAL	0.000000	0.000000	28.274334	0.000000	0.000000
; New Wet Well
9004	722.030000	9.000000	4.500000	FUNCTIONAL	0.000000	0.000000	28.274334	0.000000	0.000000
; New Wet Well
9006	723.330000	9.000000	4.500000	FUNCTIONAL	0.000000	0.000000	19.634954	0.000000	0.000000
; New Wet Well
9008	759.080000	9.000000	4.000000	FUNCTIONAL	0.000000	0.000000	28.274334	0.000000	0.000000
; PS1, South Main Street
PS1	786.330000	9.000000	4.500000	FUNCTIONAL	0.000000	0.000000	28.274334	0.000000	0.000000
; Mobile Home Park
PS3	786.670000	9.000000	4.500000	FUNCTIONAL	0.000000	0.000000	28.274334	0.000000	0.000000
; Parking Lot Pump Station
PS5	738.070000	9.000000	4.500000	FUNCTIONAL	0.000000	0.000000	28.274334	0.000000	0.000000

[CONDUITS]
; New Pipe
100	99	MH44	218.470000	0.015000	0.000000	0.000000	0.000000	0.000000
; New Pipe
102	101	99	193.280000	0.015000	0.000000	0.200000	0.000000	0.000000
; New Pipe
106	PS5-CHAMBER	107	1708.760000	0.010000	0.000000	0.000000	0.000000	0.000000
; New Pipe
108	89	107	427.220000	0.015000	0.000000	2.000000	0.000000	0.000000
; Force Main
110	103	91	614.340000	0.010000	0.000000	2.000000	0.000000	0.000000
; New Pipe
112	MH47	105	100.000000	0.015000	8.206667	0.000000	0.000000	0.000000
; New Pipe
114	MH72	PS5	95.150000	0.015000	0.000000	0.000000	0.000000	0.000000
; Splitted Pipe
116	107	9008	427.220000	0.015000	18.420000	0.000000	0.000000	0.000000
; New Pipe
84	85	MH75	1001.150000	0.010000	0.000000	0.467000	0.000000	0.000000
; New Pipe
92	93	91	92.580000	0.015000	0.000000	0.200000	0.000000	0.000000
; New Pipe
94	91	95	151.680000	0.015000	0.000000	0.200000	0.000000	0.000000
; New Pipe
96	95	97	122.470000	0.015000	0.000000	0.200000	0.000000	0.000000
; New Pipe
98	97	99	92.390000	0.015000	0.000000	0.200000	0.000000	0.000000
; 4" HDPE Force Main
FM1	PS1C	MH18	219.540000	0.010000	0.000000	1.730000	0.000000	0.000000
FM2	PS2	MH70	265.580000	0.010000	0.000000	0.000000	0.000000	0.000000
; New Pipe
FM5	50	MH75	1114.670000	0.010000	0.000000	0.467000	0.000000	0.000000
PIPE(1)	MH1	PS1	229.909252	0.010000	0.000000	0.000000	0.000000	0.000000
PIPE(10)	MH11	MH12	360.000000	0.010000	0.000000	0.200000	0.000000	0.000000
PIPE(11)	MH12	MH13	178.052992	0.010000	0.000000	0.200000	0.000000	0.000000
PIPE(12)	MH13	MH14	69.192376	0.010000	0.000000	0.200000	0.000000	0.000000
PIPE(13)	MH14	MH6	77.106465	0.010000	0.000000	0.200000	0.000000	0.000000
PIPE(14)	MH16	9002	24.992882	0.010000	0.000000	0.000000	0.000000	0.000000
PIPE(15)	MH17	MH16	135.473762	0.010000	0.000000	0.530000	0.000000	0.000000
PIPE(16)	MH18	MH17	326.596363	0.010000	0.000000	0.197000	0.000000	0.000000
PIPE(17)	MH19	MH18	195.897433	0.010000	0.000000	0.200000	0.000000	0.000000
PIPE(18)	MH20	MH19	48.552552	0.010000	0.000000	0.197000	0.000000	0.000000
PIPE(19)	MH21	MH20	278.837999	0.010000	0.000000	0.197000	0.000000	0.000000
PIPE(2)	MH3	MH4	137.869178	0.010000	0.000000	0.200000	0.000000	0.000000
PIPE(20)	MH22	MH21	163.274854	0.010000	0.000000	0.200000	0.000000	0.000000
PIPE(21)	MH23	MH19	251.229158	0.010000	0.000000	0.200333	0.000000	0.000000
PIPE(23)	MH24	MH25	149.164243	0.010000	0.000000	0.200000	0.000000	0.000000
PIPE(24)	MH25	MH26	328.104247	0.010000	0.000000	0.200000	0.000000	0.000000
PIPE(25)	MH26	MH27	400.000000	0.010000	0.000000	0.200000	0.000000	0.000000
PIPE(26)	MH27	MH28	229.424204	0.010000	0.000000	0.200000	0.000000	0.000000
PIPE(27)	MH28	MH29	346.812722	0.010000	0.000000	0.200000	0.000000	0.000000
PIPE(28)	MH29	MH30	307.657302	0.010000	0.000000	0.200000	0.000000	0.000000
PIPE(29)	MH30	MH31	146.720205	0.010000	0.000000	0.200000	0.000000	0.000000
PIPE(3)	MH4	MH5	303.228802	0.010000	0.000000	0.200000	0.000000	0.000000
PIPE(30)	MH31	MH32	207.063047	0.010000	0.000000	0.200000	0.000000	0.000000
PIPE(31)	MH32	MH33	96.542507	0.010000	0.000000	0.200000	0.000000	0.000000
PIPE(32)	MH33	MH34	194.060094	0.010000	0.000000	0.200000	0.000000	0.000000
PIPE(33)	MH34	MH35	247.003635	0.010000	0.000000	0.200000	0.000000	0.000000
PIPE(34)	MH35	MH36	106.858521	0.010000	0.000000	0.200000	0.000000	0.000000
PIPE(35)	MH36	MH37	211.288399	0.010000	0.000000	0.200000	0.000000	0.000000
PIPE(36)	MH37	MH38	158.796070	0.010000	0.000000	0.200000	0.000000	0.000000
PIPE(37)	MH38	MH39	186.708857	0.010000	0.000000	0.200000	0.000000	0.000000
PIPE(38)	MH39	MH40	330.668520	0.010000	0.000000	0.200000	0.000000	0.000000
PIPE(39)	MH40	MH41	162.774920	0.010000	0.000000	0.200000	0.000000	0.000000
PIPE(4)	MH5	MH6	236.584748	0.010000	0.000000	0.200000	0.000000	0.000000
PIPE(40)	MH41	MH42	110.000000	0.010000	0.000000	0.200000	0.000000	0.000000
PIPE(41)	MH42	MH43	82.000000	0.010000	0.000000	0.200000	0.000000	0.000000
PIPE(42)	MH43	MH44	116.284370	0.010000	0.000000	0.333333	0.000000	0.000000
PIPE(43)	MH44	MH45	107.332052	0.010000	0.133333	0.200000	0.000000	0.000000
PIPE(44)	MH45	MH46	280.577536	0.010000	0.000000	0.200000	0.000000	0.000000
PIPE(45)	MH46	MH47	85.679040	0.010000	0.000000	0.000000	0.000000	0.000000
PIPE(46)	MH48	MH49	130.777976	0.010000	0.000000	0.198212	0.000000	0.000000
PIPE(47)	MH49	MH50	135.549803	0.010000	0.000000	0.197272	0.000000	0.000000
PIPE(48)	MH50	MH51	275.860000	0.010000	0.000000	0.196597	0.000000	0.000000
PIPE(49)	MH51	MH52	275.859643	0.010000	0.000000	0.203150	0.000000	0.000000
PIPE(5)	MH6	MH7	98.194712	0.010000	0.000000	0.200000	0.000000	0.000000
PIPE(50)	MH52	MH53	275.860000	0.010000	0.000000	0.491536	0.000000	0.000000
PIPE(51)	MH53	MH39	299.313303	0.010000	0.287083	0.200000	0.000000	0.000000
PIPE(52)	MH54	MH53	122.883974	0.010000	0.000000	0.000000	0.000000	0.000000
PIPE(53)	MH55	MH56	262.333455	0.010000	0.000000	0.202394	0.000000	0.000000
PIPE(54)	MH56	PS3	228.883510	0.010000	0.000000	0.000000	0.000000	0.000000
PIPE(55)	MH58	MH56	64.512327	0.010000	0.000000	0.200000	0.000000	0.000000
PIPE(56)	MH59	MH25	273.610816	0.010000	0.000000	0.199667	0.000000	0.000000
PIPE(57)	MH60	MH59	273.610816	0.010000	0.000000	0.200000	0.000000	0.000000
PIPE(58)	MH61	MH60	167.756998	0.010000	0.000000	0.197000	0.000000	0.000000
PIPE(59)	MH62	MH60	167.103716	0.010000	0.000000	0.200333	0.000000	0.000000
PIPE(6)	MH7	MH8	205.821776	0.010000	0.000000	0.200000	0.000000	0.000000
PIPE(60)	MH63	MH64	194.027906	0.010000	0.000000	0.200000	0.000000	0.000000
PIPE(61)	MH64	MH65	284.701148	0.010000	0.000000	0.200000	0.000000	0.000000
PIPE(62)	MH65	MH66	108.295033	0.010000	0.000000	0.197050	0.000000	0.000000
PIPE(63)	MH66	MH29	322.417346	0.010000	0.000000	0.200000	0.000000	0.000000
PIPE(64)	MH67	MH65	121.652921	0.010000	0.000000	0.200000	0.000000	0.000000
PIPE(65)	MH68	MH69	178.304988	0.010000	0.000000	0.200000	0.000000	0.000000
PIPE(66)	MH69	MH66	178.424860	0.010000	0.000000	0.200000	0.000000	0.000000
PIPE(67)	MH70	MH26	125.015934	0.010000	0.130159	0.196667	0.000000	0.000000
PIPE(68)	MH73	MH72	96.833335	0.010000	0.000000	0.535000	0.000000	0.000000
PIPE(69)	MH74	MH73	267.149014	0.010000	0.000000	0.205000	0.000000	0.000000
PIPE(7)	MH8	MH9	196.753324	0.010000	0.000000	0.200000	0.000000	0.000000
PIPE(70)	MH75	MH74	267.149014	0.010000	0.000000	0.200000	0.000000	0.000000
PIPE(71)	MH76	MH77	176.963833	0.010000	0.000000	0.200000	0.000000	0.000000
PIPE(72)	MH77	MH78	272.431143	0.010000	0.000000	0.200000	0.000000	0.000000
PIPE(73)	MH78	9006	298.264707	0.010000	0.000000	0.000000	0.000000	0.000000
PIPE(74)	MH80	MH81	91.144241	0.010000	0.000000	0.000000	0.000000	0.000000
PIPE(75)	MH81	9004	362.757285	0.010000	0.200000	0.000000	0.000000	0.000000
PIPE(76)	MH83	MH84	142.809360	0.010000	0.000000	0.204333	0.000000	0.000000
PIPE(78)	MH85	MH86	400.000000	0.010000	0.000000	0.200000	0.000000	0.000000
PIPE(79)	MH86	MH87	400.000000	0.010000	0.000000	0.200000	0.000000	0.000000
PIPE(8)	MH9	MH1	100.950894	0.010000	0.000000	0.452978	0.000000	0.000000
PIPE(80)	MH87	MH88	400.000000	0.010000	0.000000	0.200000	0.000000	0.000000
PIPE(81)	MH88	MH89	145.732966	0.010000	0.000000	0.202670	0.000000	0.000000
PIPE(82)	MH89	MH90	211.760983	0.010000	0.000000	0.202956	0.000000	0.000000
PIPE(83)	MH90	PS5	211.760983	0.010000	0.000000	0.333333	0.000000	0.000000
PIPE(84)	MH91	MH89	165.359213	0.010000	0.000000	0.200000	0.000000	0.000000
PIPE(9)	MH10	MH11	361.538428	0.010000	0.000000	0.200000	0.000000	0.000000
PIPE77	MH84	MH72	231.554000	0.015000	0.000000	0.533000	0.000000	0.000000
PS3-FM	PS3CHAMBER	MH30	521.810000	0.010000	0.000000	1.666667	0.000000	0.000000

[PUMPS]
; New Pump
5006	9002	PS2	PC_5006	ON	0.000000	0.000000
; New Pump
5008	9002	PS2	PC_5008	ON	0.000000	0.000000
; New Pump
5010	9004	50	PC_5010	ON	0.000000	0.000000
; New Pump
5012	9004	50	PC_5012	ON	0.000000	0.000000
; New Pump
5014	9006	85	PC_5014	ON	0.000000	0.000000
; New Pump
5016	9006	85	PC_5016	ON	0.000000	0.000000
; New Pump
5018	PS3	PS3CHAMBER	PC_5018	ON	0.000000	0.000000
; New Pump
5020	PS3	PS3CHAMBER	PC_5020	ON	0.000000	0.000000
; New Pump
5022	PS5	PS5-CHAMBER	PC_5022	ON	0.000000	0.000000
; New Pump
5024	PS5	PS5-CHAMBER	PC_5024	ON	0.000000	0.000000
; New Pump
5026	9008	103	PC_5026	ON	0.000000	0.000000
; New Pump
5028	9008	103	PC_5028	ON	0.000000	0.000000
; PS1, Pump A
PS1A	PS1	PS1C	PC_PS1A	ON	0.000000	0.000000
; PS1, Pump B
PS1B	PS1	PS1C	PC_PS1B	ON	0.000000	0.000000

[ORIFICES]

[WEIRS]

[XSECTIONS]
100	CIRCULAR	0.055583	0.000000	0.000000	0.000000	1	0
102	CIRCULAR	0.055583	0.000000	0.000000	0.000000	1	0
106	FORCE_MAIN	0.027500	120.000000	0.000000	0.000000	1	0
108	CIRCULAR	0.055583	0.000000	0.000000	0.000000	1	0
110	FORCE_MAIN	0.027500	120.000000	0.000000	0.000000	1	0
112	CIRCULAR	0.055583	0.000000	0.000000	0.000000	1	0
114	CIRCULAR	0.055583	0.000000	0.000000	0.000000	1	0
116	CIRCULAR	0.055583	0.000000	0.000000	0.000000	1	0
84	FORCE_MAIN	0.027500	120.000000	0.000000	0.000000	1	0
92	CIRCULAR	0.055583	0.000000	0.000000	0.000000	1	0
94	CIRCULAR	0.055583	0.000000	0.000000	0.000000	1	0
96	CIRCULAR	0.055583	0.000000	0.000000	0.000000	1	0
98	CIRCULAR	0.055583	0.000000	0.000000	0.000000	1	0
FM1	FORCE_MAIN	0.027500	120.000000	0.000000	0.000000	1	0
FM2	FORCE_MAIN	0.027500	120.000000	0.000000	0.000000	1	0
FM5	FORCE_MAIN	0.027500	120.000000	0.000000	0.000000	1	0
PIPE(1)	FORCE_MAIN	0.055556	0.015000	0.000000	0.000000	1	0
PIPE(10)	FORCE_MAIN	0.055556	0.015000	0.000000	0.000000	1	0
PIPE(11)	FORCE_MAIN	0.055556	0.015000	0.000000	0.000000	1	0
PIPE(12)	FORCE_MAIN	0.055556	0.015000	0.000000	0.000000	1	0
PIPE(13)	FORCE_MAIN	0.055556	0.015000	0.000000	0.000000	1	0
PIPE(14)	FORCE_MAIN	0.055556	0.015000	0.000000	0.000000	1	0
PIPE(15)	FORCE_MAIN	0.055556	0.015000	0.000000	0.000000	1	0
PIPE(16)	FORCE_MAIN	0.055556	0.015000	0.000000	0.000000	1	0
PIPE(17)	FORCE_MAIN	0.055556	0.015000	0.000000	0.000000	1	0
PIPE(18)	FORCE_MAIN	0.055556	0.015000	0.000000	0.000000	1	0
PIPE(19)	FORCE_MAIN	0.055556	0.015000	0.000000	0.000000	1	0
PIPE(2)	FORCE_MAIN	0.055556	0.015000	0.000000	0.000000	1	0
PIPE(20)	FORCE_MAIN	0.055556	0.015000	0.000000	0.000000	1	0
PIPE(21)	FORCE_MAIN	0.055556	0.015000	0.000000	0.000000	1	0
PIPE(23)	FORCE_MAIN	0.055556	0.015000	0.000000	0.000000	1	0
PIPE(24)	FORCE_MAIN	0.055556	0.015000	0.000000	0.000000	1	0
PIPE(25)	FORCE_MAIN	0.055556	0.015000	0.000000	0.000000	1	0
PIPE(26)	FORCE_MAIN	0.055556	0.015000	0.000000	0.000000	1	0
PIPE(27)	FORCE_MAIN	0.055556	0.015000	0.000000	0.000000	1	0
PIPE(28)	FORCE_MAIN	0.055556	0.015000	0.000000	0.000000	1	0
PIPE(29)	FORCE_MAIN	0.055556	0.015000	0.000000	0.000000	1	0
PIPE(3)	FORCE_MAIN	0.055556	0.015000	0.000000	0.000000	1	0
PIPE(30)	FORCE_MAIN	0.055556	0.015000	0.000000	0.000000	1	0
PIPE(31)	FORCE_MAIN	0.055556	0.015000	0.000000	0.000000	1	0
PIPE(32)	FORCE_MAIN	0.055556	0.015000	0.000000	0.000000	1	0
PIPE(33)	FORCE_MAIN	0.055556	0.015000	0.000000	0.000000	1	0
PIPE(34)	FORCE_MAIN	0.055556	0.015000	0.000000	0.000000	1	0
PIPE(35)	FORCE_MAIN	0.055556	0.015000	0.000000	0.000000	1	0
PIPE(36)	FORCE_MAIN	0.055556	0.015000	0.000000	0.000000	1	0
PIPE(37)	FORCE_MAIN	0.055556	0.015000	0.000000	0.000000	1	0
PIPE(38)	FORCE_MAIN	0.055556	0.015000	0.000000	0.000000	1	0
PIPE(39)	FORCE_MAIN	0.055556	0.015000	0.000000	0.000000	1	0
PIPE(4)	FORCE_MAIN	0.055556	0.015000	0.000000	0.000000	1	0
PIPE(40)	FORCE_MAIN	0.055556	0.015000	0.000000	0.000000	1	0
PIPE(41)	FORCE_MAIN	0.055556	0.015000	0.000000	0.000000	1	0
PIPE(42)	FORCE_MAIN	0.055556	0.015000	0.000000	0.000000	1	0
PIPE(43)	FORCE_MAIN	0.055556	0.015000	0.000000	0.000000	1	0
PIPE(44)	FORCE_MAIN	0.055556	0.015000	0.000000	0.000000	1	0
PIPE(45)	FORCE_MAIN	0.055556	0.015000	0.000000	0.000000	1	0
PIPE(46)	FORCE_MAIN	0.055556	0.015000	0.000000	0.000000	1	0
PIPE(47)	FORCE_MAIN	0.055556	0.015000	0.000000	0.000000	1	0
PIPE(48)	FORCE_MAIN	0.055556	0.015000	0.000000	0.000000	1	0
PIPE(49)	FORCE_MAIN	0.055556	0.015000	0.000000	0.000000	1	0
PIPE(5)	FORCE_MAIN	0.055556	0.015000	0.000000	0.000000	1	0
PIPE(50)	FORCE_MAIN	0.055556	0.015000	0.000000	0.000000	1	0
PIPE(51)	FORCE_MAIN	0.055556	0.015000	0.000000	0.000000	1	0
PIPE(52)	FORCE_MAIN	0.055556	0.015000	0.000000	0.000000	1	0
PIPE(53)	FORCE_MAIN	0.055556	0.015000	0.000000	0.000000	1	0
PIPE(54)	FORCE_MAIN	0.055556	0.015000	0.000000	0.000000	1	0
PIPE(55)	FORCE_MAIN	0.055556	0.015000	0.000000	0.000000	1	0
PIPE(56)	FORCE_MAIN	0.055556	0.015000	0.000000	0.000000	1	0
PIPE(57)	FORCE_MAIN	0.055556	0.015000	0.000000	0.000000	1	0
PIPE(58)	FORCE_MAIN	0.055556	0.015000	0.000000	0.000000	1	0
PIPE(59)	FORCE_MAIN	0.055556	0.015000	0.000000	0.000000	1	0
PIPE(6)	FORCE_MAIN	0.055556	0.015000	0.000000	0.000000	1	0
PIPE(60)	FORCE_MAIN	0.055556	0.015000	0.000000	0.000000	1	0
PIPE(61)	FORCE_MAIN	0.055556	0.015000	0.000000	0.000000	1	0
PIPE(62)	FORCE_MAIN	0.055556	0.015000	0.000000	0.000000	1	0
PIPE(63)	FORCE_MAIN	0.055556	0.015000	0.000000	0.000000	1	0
PIPE(64)	FORCE_MAIN	0.055556	0.015000	0.000000	0.000000	1	0
PIPE(65)	FORCE_MAIN	0.055556	0.015000	0.000000	0.000000	1	0
PIPE(66)	FORCE_MAIN	0.055556	0.015000	0.000000	0.000000	1	0
PIPE(67)	FORCE_MAIN	0.055556	0.015000	0.000000	0.000000	1	0
PIPE(68)	FORCE_MAIN	0.055556	0.015000	0.000000	0.000000	1	0
PIPE(69)	FORCE_MAIN	0.055556	0.015000	0.000000	0.000000	1	0
PIPE(7)	FORCE_MAIN	0.055556	0.015000	0.000000	0.000000	1	0
PIPE(70)	FORCE_MAIN	0.055556	0.015000	0.000000	0.000000	1	0
PIPE(71)	FORCE_MAIN	0.055556	0.015000	0.000000	0.000000	1	0
PIPE(72)	FORCE_MAIN	0.055556	0.015000	0.000000	0.000000	1	0
PIPE(73)	FORCE_MAIN	0.055556	0.015000	0.000000	0.000000	1	0
PIPE(74)	FORCE_MAIN	0.055556	0.015000	0.000000	0.000000	1	0
PIPE(75)	FORCE_MAIN	0.055556	0.015000	0.000000	0.000000	1	0
PIPE(76)	FORCE_MAIN	0.055556	0.015000	0.000000	0.000000	1	0
PIPE(78)	FORCE_MAIN	0.055556	0.015000	0.000000	0.000000	1	0
PIPE(79)	FORCE_MAIN	0.055556	0.015000	0.000000	0.000000	1	0
PIPE(8)	FORCE_MAIN	0.055556	0.015000	0.000000	0.000000	1	0
PIPE(80)	FORCE_MAIN	0.055556	0.015000	0.000000	0.000000	1	0
PIPE(81)	FORCE_MAIN	0.055556	0.015000	0.000000	0.000000	1	0
PIPE(82)	FORCE_MAIN	0.055556	0.015000	0.000000	0.000000	1	0
PIPE(83)	FORCE_MAIN	0.055556	0.015000	0.000000	0.000000	1	0
PIPE(84)	FORCE_MAIN	0.055556	0.015000	0.000000	0.000000	1	0
PIPE(9)	FORCE_MAIN	0.055556	0.015000	0.000000	0.000000	1	0
PIPE77	CIRCULAR	0.055583	0.000000	0.000000	0.000000	1	0
PS3-FM	FORCE_MAIN	0.027500	120.000000	0.000000	0.000000	1	0

[TRANSECTS]

[LOSSES]
100	0.000000	0.000000	0.000000	NO	0.000000
102	0.000000	0.000000	0.000000	NO	0.000000
106	0.000000	0.000000	0.000000	NO	0.000000
108	0.000000	0.000000	0.000000	NO	0.000000
110	0.000000	0.000000	0.000000	NO	0.000000
112	0.000000	0.000000	0.000000	NO	0.000000
114	0.000000	0.000000	0.000000	NO	0.000000
116	0.000000	0.000000	0.000000	NO	0.000000
84	0.000000	0.000000	0.000000	NO	0.000000
92	0.000000	0.000000	0.000000	NO	0.000000
94	0.000000	0.000000	0.000000	NO	0.000000
96	0.000000	0.000000	0.000000	NO	0.000000
98	0.000000	0.000000	0.000000	NO	0.000000
FM1	0.000000	0.000000	0.000000	NO	0.000000
FM2	0.000000	0.000000	0.000000	NO	0.000000
FM5	0.000000	0.000000	0.000000	NO	0.000000
PIPE(1)	0.000000	0.000000	0.000000	NO	0.000000
PIPE(10)	0.000000	0.000000	0.000000	NO	0.000000
PIPE(11)	0.000000	0.000000	0.000000	NO	0.000000
PIPE(12)	0.000000	0.000000	0.000000	NO	0.000000
PIPE(13)	0.000000	0.000000	0.000000	NO	0.000000
PIPE(14)	0.000000	0.000000	0.000000	NO	0.000000
PIPE(15)	0.000000	0.000000	0.000000	NO	0.000000
PIPE(16)	0.000000	0.000000	0.000000	NO	0.000000
PIPE(17)	0.000000	0.000000	0.000000	NO	0.000000
PIPE(18)	0.000000	0.000000	0.000000	NO	0.000000
PIPE(19)	0.000000	0.000000	0.000000	NO	0.000000
PIPE(2)	0.000000	0.000000	0.000000	NO	0.000000
PIPE(20)	0.000000	0.000000	0.000000	NO	0.000000
PIPE(21)	0.000000	0.000000	0.000000	NO	0.000000
PIPE(23)	0.000000	0.000000	0.000000	NO	0.000000
PIPE(24)	0.000000	0.000000	0.000000	NO	0.000000
PIPE(25)	0.000000	0.000000	0.000000	NO	0.000000
PIPE(26)	0.000000	0.000000	0.000000	NO	0.000000
PIPE(27)	0.000000	0.000000	0.000000	NO	0.000000
PIPE(28)	0.000000	0.000000	0.000000	NO	0.000000
PIPE(29)	0.000000	0.000000	0.000000	NO	0.000000
PIPE(3)	0.000000	0.000000	0.000000	NO	0.000000
PIPE(30)	0.000000	0.000000	0.000000	NO	0.000000
PIPE(31)	0.000000	0.000000	0.000000	NO	0.000000
PIPE(32)	0.000000	0.000000	0.000000	NO	0.000000
PIPE(33)	0.000000	0.000000	0.000000	NO	0.000000
PIPE(34)	0.000000	0.000000	0.000000	NO	0.000000
PIPE(35)	0.000000	0.000000	0.000000	NO	0.000000
PIPE(36)	0.000000	0.000000	0.000000	NO	0.000000
PIPE(37)	0.000000	0.000000	0.000000	NO	0.000000
PIPE(38)	0.000000	0.000000	0.000000	NO	0.000000
PIPE(39)	0.000000	0.000000	0.000000	NO	0.000000
PIPE(4)	0.000000	0.000000	0.000000	NO	0.000000
PIPE(40)	0.000000	0.000000	0.000000	NO	0.000000
PIPE(41)	0.000000	0.000000	0.000000	NO	0.000000
PIPE(42)	0.000000	0.000000	0.000000	NO	0.000000
PIPE(43)	0.000000	0.000000	0.000000	NO	0.000000
PIPE(44)	0.000000	0.000000	0.000000	NO	0.000000
PIPE(45)	0.000000	0.000000	0.000000	NO	0.000000
PIPE(46)	0.000000	0.000000	0.000000	NO	0.000000
PIPE(47)	0.000000	0.000000	0.000000	NO	0.000000
PIPE(48)	0.000000	0.000000	0.000000	NO	0.000000
PIPE(49)	0.000000	0.000000	0.000000	NO	0.000000
PIPE(5)	0.000000	0.000000	0.000000	NO	0.000000
PIPE(50)	0.000000	0.000000	0.000000	NO	0.000000
PIPE(51)	0.000000	0.000000	0.000000	NO	0.000000
PIPE(52)	0.000000	0.000000	0.000000	NO	0.000000
PIPE(53)	0.000000	0.000000	0.000000	NO	0.000000
PIPE(54)	0.000000	0.000000	0.000000	NO	0.000000
PIPE(55)	0.000000	0.000000	0.000000	NO	0.000000
PIPE(56)	0.000000	0.000000	0.000000	NO	0.000000
PIPE(57)	0.000000	0.000000	0.000000	NO	0.000000
PIPE(58)	0.000000	0.000000	0.000000	NO	0.000000
PIPE(59)	0.000000	0.000000	0.000000	NO	0.000000
PIPE(6)	0.000000	0.000000	0.000000	NO	0.000000
PIPE(60)	0.000000	0.000000	0.000000	NO	0.000000
PIPE(61)	0.000000	0.000000	0.000000	NO	0.000000
PIPE(62)	0.000000	0.000000	0.000000	NO	0.000000
PIPE(63)	0.000000	0.000000	0.000000	NO	0.000000
PIPE(64)	0.000000	0.000000	0.000000	NO	0.000000
PIPE(65)	0.000000	0.000000	0.000000	NO	0.000000
PIPE(66)	0.000000	0.000000	0.000000	NO	0.000000
PIPE(67)	0.000000	0.000000	0.000000	NO	0.000000
PIPE(68)	0.000000	0.000000	0.000000	NO	0.000000
PIPE(69)	0.000000	0.000000	0.000000	NO	0.000000
PIPE(7)	0.000000	0.000000	0.000000	NO	0.000000
PIPE(70)	0.000000	0.000000	0.000000	NO	0.000000
PIPE(71)	0.000000	0.000000	0.000000	NO	0.000000
PIPE(72)	0.000000	0.000000	0.000000	NO	0.000000
PIPE(73)	0.000000	0.000000	0.000000	NO	0.000000
PIPE(74)	0.000000	0.000000	0.000000	NO	0.000000
PIPE(75)	0.000000	0.000000	0.000000	NO	0.000000
PIPE(76)	0.000000	0.000000	0.000000	NO	0.000000
PIPE(78)	0.000000	0.000000	0.000000	NO	0.000000
PIPE(79)	0.000000	0.000000	0.000000	NO	0.000000
PIPE(8)	0.000000	0.000000	0.000000	NO	0.000000
PIPE(80)	0.000000	0.000000	0.000000	NO	0.000000
PIPE(81)	0.000000	0.000000	0.000000	NO	0.000000
PIPE(82)	0.000000	0.000000	0.000000	NO	0.000000
PIPE(83)	0.000000	0.000000	0.000000	NO	0.000000
PIPE(84)	0.000000	0.000000	0.000000	NO	0.000000
PIPE(9)	0.000000	0.000000	0.000000	NO	0.000000
PIPE77	0.000000	0.000000	0.000000	NO	0.000000
PS3-FM	0.000000	0.000000	0.000000	NO	0.000000

[CONTROLS]
RULE PS1A_ONLEVEL
IF NODE PS1 DEPTH > 4.500000
THEN PUMP PS1A STATUS = ON


RULE PS1A_OFFLEVEL
IF NODE PS1 DEPTH <= 1.500000
THEN PUMP PS1A STATUS = OFF



[POLLUTANTS]

[LANDUSES]

[COVERAGES]

[BUILDUP]

[WASHOFF]

[TREATMENT]

[INFLOWS]

[DWF]
MH1	FLOW	638.142466	"RES24HR_LOAD"	""	""	""
MH10	FLOW	430.734247	"RES24HR_LOAD"	""	""	""
MH11	FLOW	1694.071233	"RES24HR_LOAD"	""	""	""
MH12	FLOW	653.704110	"RES24HR_LOAD"	""	""	""
MH13	FLOW	89.560000	"RES24HR_LOAD"	""	""	""
MH14	FLOW	78.930000	"RES24HR_LOAD"	""	""	""
MH17	FLOW	79.890000	""	""	""	""
MH20	FLOW	893.704110	"RES24HR_LOAD"	""	""	""
MH21	FLOW	66.887671	""	""	""	""
MH22	FLOW	369.443836	""	""	""	""
MH23	FLOW	288.464384	"RES24HR_LOAD"	""	""	""
MH24	FLOW	278.243836	"RES24HR_LOAD"	""	""	""
MH25	FLOW	223.649315	"RES24HR_LOAD"	""	""	""
MH26	FLOW	406.394658	"RES24HR_LOAD"	""	""	""
MH27	FLOW	510.667260	""	""	""	""
MH28	FLOW	131.539726	"RES24HR_LOAD"	""	""	""
MH29	FLOW	141.389041	""	""	""	""
MH3	FLOW	333.128767	"RES24HR_LOAD"	""	""	""
MH30	FLOW	445.583562	"RES24HR_LOAD"	""	""	""
MH31	FLOW	441.293151	"RES24HR_LOAD"	""	""	""
MH32	FLOW	609.043151	"RES24HR_LOAD"	""	""	""
MH33	FLOW	678.231507	"RES24HR_LOAD"	""	""	""
MH34	FLOW	636.027397	"RES24HR_LOAD"	""	""	""
MH35	FLOW	430.991918	"RES24HR_LOAD"	""	""	""
MH36	FLOW	140.827397	"RES24HR_LOAD"	""	""	""
MH37	FLOW	464.290411	"RES24HR_LOAD"	""	""	""
MH38	FLOW	75.947945	"RES24HR_LOAD"	""	""	""
MH39	FLOW	55.930000	"RES24HR_LOAD"	""	""	""
MH4	FLOW	143.280000	"RES24HR_LOAD"	""	""	""
MH40	FLOW	172.334247	"RES24HR_LOAD"	""	""	""
MH41	FLOW	170.639452	"RES24HR_LOAD"	""	""	""
MH42	FLOW	340.849315	"RES24HR_LOAD"	""	""	""
MH5	FLOW	175.224658	"RES24HR_LOAD"	""	""	""
MH50	FLOW	1688.137534	"RES24HR_LOAD"	""	""	""
MH52	FLOW	838.524384	"RES24HR_LOAD"	""	""	""
MH53	FLOW	182.800000	""	""	""	""
MH54	FLOW	2489.274521	"RES24HR_LOAD"	""	""	""
MH55	FLOW	789.000000	"RES24HR_LOAD"	""	""	""
MH56	FLOW	498.964384	"RES24HR_LOAD"	""	""	""
MH59	FLOW	779.939863	"RES24HR_LOAD"	""	""	""
MH60	FLOW	289.223562	"RES24HR_LOAD"	""	""	""
MH61	FLOW	296.921644	"RES24HR_LOAD"	""	""	""
MH62	FLOW	115.482192	""	""	""	""
MH66	FLOW	400.987534	"RES24HR_LOAD"	""	""	""
MH67	FLOW	300.432877	""	""	""	""
MH68	FLOW	215.100000	"RES24HR_LOAD"	""	""	""
MH69	FLOW	548.430548	"RES24HR_LOAD"	""	""	""
MH70	FLOW	389.761644	"RES24HR_LOAD"	""	""	""
MH74	FLOW	327.389041	"RES24HR_LOAD"	""	""	""
MH75	FLOW	353.523288	"RES24HR_LOAD"	""	""	""
MH76	FLOW	361.389041	"RES24HR_LOAD"	""	""	""
MH78	FLOW	1032.164384	"RES24HR_LOAD"	""	""	""
MH80	FLOW	341.268493	"RES24HR_LOAD"	""	""	""
MH81	FLOW	175.647671	"RES24HR_LOAD"	""	""	""
MH83	FLOW	380.695890	"RES24HR_LOAD"	""	""	""
MH84	FLOW	119.775342	"RES24HR_LOAD"	""	""	""
MH85	FLOW	6621.780137	"RES24HR_LOAD"	""	""	""
MH86	FLOW	809.821918	"RES24HR_LOAD"	""	""	""
MH87	FLOW	250.168767	"RES24HR_LOAD"	""	""	""
MH88	FLOW	76.767123	"RES24HR_LOAD"	""	""	""
MH89	FLOW	116.130000	"RES24HR_LOAD"	""	""	""
MH90	FLOW	72.457534	"RES24HR_LOAD"	""	""	""
MH91	FLOW	210.915068	"RES24HR_LOAD"	""	""	""

[RDII]

[LOADINGS]

[CURVES]
; 
PC_5006	PUMP3	4.488310	450.000000
PC_5006	448831.000000	450.000000
PC_5006	4488310.000000	450.000000
; 
PC_5008	PUMP3	4.488310	450.000000
PC_5008	448831.000000	450.000000
PC_5008	4488310.000000	450.000000
; 
PC_5010	PUMP3	4.488310	450.000000
PC_5010	448831.000000	450.000000
PC_5010	4488310.000000	450.000000
; 
PC_5012	PUMP3	4.488310	450.000000
PC_5012	448831.000000	450.000000
PC_5012	4488310.000000	450.000000
; 
PC_5014	PUMP3	4.488310	450.000000
PC_5014	448831.000000	450.000000
PC_5014	4488310.000000	450.000000
; 
PC_5016	PUMP3	4.488310	450.000000
PC_5016	448831.000000	450.000000
PC_5016	4488310.000000	450.000000
; 
PC_5018	PUMP3	4.488310	450.000000
PC_5018	448831.000000	450.000000
PC_5018	4488310.000000	450.000000
; 
PC_5020	PUMP3	4.488310	450.000000
PC_5020	448831.000000	450.000000
PC_5020	4488310.000000	450.000000
; 