[TITLE]
;;Project Title/Notes

[OPTIONS]
;;Option             Value
FLOW_UNITS           MGD
INFILTRATION         HORTON
FLOW_ROUTING         DYNWAVE
LINK_OFFSETS         DEPTH
MIN_SLOPE            0
ALLOW_PONDING        NO
SKIP_STEADY_STATE    NO

START_DATE           01/01/2002
START_TIME           00:00:00
REPORT_START_DATE    01/01/2002
REPORT_START_TIME    00:00:00
END_DATE             01/01/2002
END_TIME             12:00:00
SWEEP_START          01/01
SWEEP_END            12/31
DRY_DAYS             5.000000
REPORT_STEP          00:05:00
WET_STEP             01:00:00
DRY_STEP             23:00:00
ROUTING_STEP         0:05:00 

INERTIAL_DAMPING     NONE
NORMAL_FLOW_LIMITED  BOTH
FORCE_MAIN_EQUATION  H-W
VARIABLE_STEP        0.75
LENGTHENING_STEP     0
MIN_SURFAREA         12.557
MAX_TRIALS           8
HEAD_TOLERANCE       0.005
SYS_FLOW_TOL         5
LAT_FLOW_TOL         5
MINIMUM_STEP         0.5
THREADS              1

[EVAPORATION]
;;Data Source    Parameters
;;-------------- ----------------
CONSTANT         0.0
DRY_ONLY         NO

[JUNCTIONS]
;;Name           Elevation  MaxDepth   InitDepth  SurDepth   Aponded   
;;-------------- ---------- ---------- ---------- ---------- ----------
; MH18911
61932872         1553.000000 6.500000   0.000000   0.000000   0.000000  
; MH18915
61932985         1574.160034 14.839966  0.000000   0.000000   0.000000  
; MH18914
61932989         1572.500000 4.500000   0.000000   0.000000   0.000000  
; MH18913
61932993         1562.849976 9.650024   0.000000   0.000000   0.000000  
; MH18912
61932999         1554.219971 10.780029  0.000000   0.000000   0.000000  
; MH17608
62030343         1613.730000 16.170000  0.000000   0.000000   0.000000  
; MH17604
62030347         1613.210000 17.590000  0.000000   0.000000   0.000000  
; MH17605
62030351         1612.680000 17.510000  0.000000   0.000000   0.000000  
; MH17606
62030355         1612.080000 19.920000  0.000000   0.000000   0.000000  
; MH17556
62030359         1635.000000 12.000000  0.000000   0.000000   0.000000  
; MH17555
62030363         1636.000000 11.900000  0.000000   0.000000   0.000000  
; MH17557
62030371         1640.050000 11.140000  0.000000   0.000000   0.000000  
; MH17601
62030375         1611.740000 19.160000  0.000000   0.000000   0.000000  
; MH17602
62030379         1611.470000 18.030000  0.000000   0.000000   0.000000  
; MH17603
62030383         1611.090000 17.310000  0.000000   0.000000   0.000000  
; MH17598
62030387         1610.590000 15.210000  0.000000   0.000000   0.000000  
; MH17599
62030391         1610.000000 14.000000  0.000000   0.000000   0.000000  
; MH17600
62030395         1609.510000 13.390000  0.000000   0.000000   0.000000  
; MH17597
62031117         1667.060000 11.940000  0.000000   0.000000   0.000000  
; MH17596
62031121         1665.110000 12.890000  0.000000   0.000000   0.000000  
; MH17595
62035447         1663.560000 13.440000  0.000000   0.000000   0.000000  
; MH17594
62035451         1662.000000 13.800000  0.000000   0.000000   0.000000  
; MH17593
62035455         1661.000000 13.900000  0.000000   0.000000   0.000000  
; MH17592
62035459         1659.000000 14.800000  0.000000   0.000000   0.000000  
; MH17591
62035463         1657.510000 13.390000  0.000000   0.000000   0.000000  
; MH17562
62035467         1654.970000 10.220000  0.000000   0.000000   0.000000  
; MH17563
62035471         1662.210000 10.980000  0.000000   0.000000   0.000000  
; MH17561
62035475         1652.710000 8.790000   0.000000   0.000000   0.000000  
; MH17560
62035479         1650.380000 9.710000   0.000000   0.000000   0.000000  
; MH17559
62035483         1648.000000 13.400000  0.000000   0.000000   0.000000  
; MH17558
62035487         1644.060000 12.340000  0.000000   0.000000   0.000000  
; MH17564
62035491         1665.550000 11.750000  0.000000   0.000000   0.000000  
; MH17565
62035499         1669.000000 12.000000  0.000000   0.000000   0.000000  
; MH17566
62035503         1671.330000 12.470000  0.000000   0.000000   0.000000  
; MH17567
62035507         1673.670000 13.230000  0.000000   0.000000   0.000000  
; MH17568
62035511         1676.050000 14.350000  0.000000   0.000000   0.000000  
; MH17570
62035519         1676.230000 13.570000  0.000000   0.000000   0.000000  
; MH17575
62035527         1655.590000 9.410000   0.000000   0.000000   0.000000  
; MH17641
62035547         1665.920000 13.080000  0.000000   0.000000   0.000000  
; MH17642
62035551         1664.780000 13.220000  0.000000   0.000000   0.000000  
; MH17638
62035555         1656.570000 10.430000  0.000000   0.000000   0.000000  
; MH17589
62036768         1706.750000 11.650000  0.000000   0.000000   0.000000  
; MH17588
62036772         1703.050000 8.950000   0.000000   0.000000   0.000000  
; MH17585
62036776         1698.000000 10.400000  0.000000   0.000000   0.000000  
; MH17584
62036780         1699.350000 10.950000  0.000000   0.000000   0.000000  
; MH17586
62036784         1697.030000 10.970000  0.000000   0.000000   0.000000  
; MH17587
62036788         1695.480000 10.320000  0.000000   0.000000   0.000000  
; MH17581
62036792         1694.470000 10.530000  0.000000   0.000000   0.000000  
; MH17582
62036796         1693.550000 9.950000   0.000000   0.000000   0.000000  
; MH17583
62036800         1692.000000 9.000000   0.000000   0.000000   0.000000  
; MH17578
62036804         1690.460000 9.940000   0.000000   0.000000   0.000000  
; MH17579
62036808         1688.930000 10.470000  0.000000   0.000000   0.000000  
; MH17634
62036812         1730.000000 10.000000  0.000000   0.000000   0.000000  
; MH17635
62036817         1729.000000 10.400000  0.000000   0.000000   0.000000  
; MH17636
62036821         1728.670000 9.520000   0.000000   0.000000   0.000000  
; MH17639
62036825         1692.790000 9.210000   0.000000   0.000000   0.000000  
; MH17640
62036829         1692.460000 9.440000   0.000000   0.000000   0.000000  
; MH17580
62036833         1688.650000 10.350000  0.000000   0.000000   0.000000  
; MH21365
62037537         1764.570000 12.230000  0.000000   0.000000   0.000000  
; MH21366
62037542         1758.900000 12.100000  0.000000   0.000000   0.000000  
; MH21367
62037546         1768.180000 12.010000  0.000000   0.000000   0.000000  
; MH21368
62037550         1771.780000 13.620000  0.000000   0.000000   0.000000  
; MH21369
62037554         1773.950000 14.140000  0.000000   0.000000   0.000000  
; MH21370
62037558         1781.690000 10.810000  0.000000   0.000000   0.000000  
; MH21371
62037564         1786.190000 9.000000   0.000000   0.000000   0.000000  
; MH21372
62037568         1790.950000 9.050000   0.000000   0.000000   0.000000  
; MH17609
62037977         1615.860000 10.140000  0.000000   0.000000   0.000000  
; MH17610
62037981         1615.320000 11.480000  0.000000   0.000000   0.000000  
; MH17611
62037985         1614.800000 12.390000  0.000000   0.000000   0.000000  
; MH17607
62037989         1614.000000 14.900000  0.000000   0.000000   0.000000  
; MH17618
62037993         1642.000000 13.000000  0.000000   0.000000   0.000000  
; MH17617
62037997         1638.810000 14.190000  0.000000   0.000000   0.000000  
; MH17616
62038001         1634.970000 13.620000  0.000000   0.000000   0.000000  
; MH17615
62038005         1631.150000 12.850000  0.000000   0.000000   0.000000  
; MH17614
62038009         1627.000000 13.000000  0.000000   0.000000   0.000000  
; MH17613
62038013         1622.770000 11.230000  0.000000   0.000000   0.000000  
; MH17612
62038017         1619.420000 10.980000  0.000000   0.000000   0.000000  
; MH17620
62038021         1643.930000 12.660000  0.000000   0.000000   0.000000  
; MH17619
62038025         1647.000000 13.400000  0.000000   0.000000   0.000000  
; MH17621
62038029         1650.880000 12.920000  0.000000   0.000000   0.000000  
; MH17643
62038033         1615.610000 10.390000  0.000000   0.000000   0.000000  
; MH17644
62038037         1615.220000 11.680000  0.000000   0.000000   0.000000  
; MH17629
62038732         1675.000000 11.500000  0.000000   0.000000   0.000000  
; MH17628
62038736         1673.180000 11.320000  0.000000   0.000000   0.000000  
; MH17622
62038740         1654.860000 12.140000  0.000000   0.000000   0.000000  
; MH17623
62038744         1657.960000 12.440000  0.000000   0.000000   0.000000  
; MH17624
62038748         1661.570000 9.730000   0.000000   0.000000   0.000000  
; MH17625
62038752         1665.000000 9.000000   0.000000   0.000000   0.000000  
; MH17626
62038756         1668.800000 10.100000  0.000000   0.000000   0.000000  
; MH17627
62038760         1671.100000 10.090000  0.000000   0.000000   0.000000  
; MH17631
62038764         1683.220000 10.780000  0.000000   0.000000   0.000000  
; MH17630
62038768         1679.610000 10.390000  0.000000   0.000000   0.000000  
; MH17632
62038772         1686.830000 12.670000  0.000000   0.000000   0.000000  
; MH17633
62038776         1690.000000 13.000000  0.000000   0.000000   0.000000  
; MH17590
62039239         1710.000000 11.690000  0.000000   0.000000   0.000000  
; MH17850
62040599         1490.880000 16.810000  0.000000   0.000000   0.000000  
; MH17849
62040603         1491.810000 14.600000  0.000000   0.000000   0.000000  
; MH17847
62040607         1493.810000 11.990000  0.000000   0.000000   0.000000  
; MH17846
62040611         1494.930000 9.870000   0.000000   0.000000   0.000000  
; MH17848
62040615         1492.840000 11.160000  0.000000   0.000000   0.000000  
; MH17851
62040619         1489.660000 16.390000  0.000000   0.000000   0.000000  
; MH17672
62041227         1488.000000 19.400000  0.000000   0.000000   0.000000  
; MH17671
62041231         1489.710000 19.690000  0.000000   0.000000   0.000000  
; MH18137
62041235         1491.000000 19.590000  0.000000   0.000000   0.000000  
; MH17673
62041239         1490.940000 19.250000  0.000000   0.000000   0.000000  
; MH17674
62041243         1492.000000 19.190000  0.000000   0.000000   0.000000  
; MH17675
62041247         1493.460000 19.940000  0.000000   0.000000   0.000000  
; MH17676
62041251         1494.730000 21.070000  0.000000   0.000000   0.000000  
; MH17680
62041255         1499.500000 14.090000  0.000000   0.000000   0.000000  
; MH18138
62041259         1492.110000 19.290000  0.000000   0.000000   0.000000  
; MH18140
62041263         1493.520000 19.880000  0.000000   0.000000   0.000000  
; MH18204
62041267         1500.370000 18.130000  0.000000   0.000000   0.000000  
; MH17774
62041271         1500.610000 18.580000  0.000000   0.000000   0.000000  
; MH17772
62041275         1503.200000 21.100000  0.000000   0.000000   0.000000  
; MH17771
62041279         1503.980000 21.110000  0.000000   0.000000   0.000000  
; MH17775
62041371         1499.540000 18.460000  0.000000   0.000000   0.000000  
; MH18203
62041375         1487.680000 19.320000  0.000000   0.000000   0.000000  
; MH17677
62041383         1495.930000 17.070000  0.000000   0.000000   0.000000  
; MH17678
62041387         1497.000000 15.590000  0.000000   0.000000   0.000000  
; MH17679
62041391         1498.270000 13.130000  0.000000   0.000000   0.000000  
; MH18139
62041395         1492.810000 19.990000  0.000000   0.000000   0.000000  
; MH18141
62041399         1494.210000 19.790000  0.000000   0.000000   0.000000  
; MH18017
62041403         1501.640000 18.450000  0.000000   0.000000   0.000000  
; MH17773
62041407         1502.420000 19.670000  0.000000   0.000000   0.000000  
; MH17777
62046936         1514.000000 11.300000  0.000000   0.000000   0.000000  
; MH17776
62046940         1509.500000 11.900000  0.000000   0.000000   0.000000  
; MH17688
62046944         1506.690000 12.000000  0.000000   0.000000   0.000000  
; MH17687
62046948         1508.140000 13.550000  0.000000   0.000000   0.000000  
; MH17684
62046972         1503.760000 12.240000  0.000000   0.000000   0.000000  
; MH17681
62046976         1500.560000 15.630000  0.000000   0.000000   0.000000  
; MH17682
62046980         1501.650000 12.250000  0.000000   0.000000   0.000000  
; MH17683
62046992         1502.770000 10.630000  0.000000   0.000000   0.000000  
; MH17686
62046996         1504.380000 14.520000  0.000000   0.000000   0.000000  
; MH17685
62047004         1504.900000 14.690000  0.000000   0.000000   0.000000  
; MH17825
62047033         1506.620000 9.380000   0.000000   0.000000   0.000000  
; MH17778
62047055         1518.680000 7.120000   0.000000   0.000000   0.000000  
; MH17779
62047059         1519.180000 7.620000   0.000000   0.000000   0.000000  
; MH17839
62050702         1499.270000 10.230000  0.000000   0.000000   0.000000  
; MH17838
62050706         1499.800000 10.700000  0.000000   0.000000   0.000000  
; MH17837
62050710         1500.340000 10.660000  0.000000   0.000000   0.000000  
; MH17836
62050714         1500.850000 10.450000  0.000000   0.000000   0.000000  
; MH17840
62050718         1498.720000 10.080000  0.000000   0.000000   0.000000  
; MH17841
62050722         1498.000000 10.800000  0.000000   0.000000   0.000000  
; MH17842
62050726         1497.680000 10.510000  0.000000   0.000000   0.000000  
; MH17843
62050730         1497.170000 10.330000  0.000000   0.000000   0.000000  
; MH17844
62050734         1496.450000 10.350000  0.000000   0.000000   0.000000  
; MH17845
62050738         1496.000000 11.500000  0.000000   0.000000   0.000000  
; MH18142
62051208         1494.940000 19.750000  0.000000   0.000000   0.000000  
; MH18143
62051212         1495.650000 19.750000  0.000000   0.000000   0.000000  
; MH18144
62051216         1496.340000 19.850000  0.000000   0.000000   0.000000  
; MH18145
62051220         1497.000000 19.900000  0.000000   0.000000   0.000000  
; MH18147
62051224         1498.360000 18.830000  0.000000   0.000000   0.000000  
; MH17766
62051228         1508.360000 17.730000  0.000000   0.000000   0.000000  
; MH17767
62051232         1507.650000 16.540000  0.000000   0.000000   0.000000  
; MH17768
62051236         1506.810000 18.780000  0.000000   0.000000   0.000000  
; MH18148
62051244         1499.000000 18.300000  0.000000   0.000000   0.000000  
; MH18149
62051248         1500.000000 17.400000  0.000000   0.000000   0.000000  
; MH18150
62051252         1501.550000 17.040000  0.000000   0.000000   0.000000  
; MH18151
62051256         1502.600000 16.800000  0.000000   0.000000   0.000000  
; MH17760
62051260         1513.480000 14.320000  0.000000   0.000000   0.000000  
; MH17761
62051264         1512.700000 14.100000  0.000000   0.000000   0.000000  
; MH17762
62051268         1511.750000 15.440000  0.000000   0.000000   0.000000  
; MH17763
62051272         1511.000000 16.590000  0.000000   0.000000   0.000000  
; MH17764
62051276         1510.290000 18.010000  0.000000   0.000000   0.000000  
; MH17765
62051280         1509.000000 17.000000  0.000000   0.000000   0.000000  
; MH17698
62052255         1524.180000 8.320000   0.000000   0.000000   0.000000  
; MH17697
62052259         1522.000000 9.000000   0.000000   0.000000   0.000000  
; MH17696
62052263         1520.930000 7.570000   0.000000   0.000000   0.000000  
; MH17695
62052267         1519.250000 8.250000   0.000000   0.000000   0.000000  
; MH17701
62052271         1515.550000 10.450000  0.000000   0.000000   0.000000  
; MH17702
62052275         1514.770000 10.230000  0.000000   0.000000   0.000000  
; MH17703
62052279         1513.930000 10.260000  0.000000   0.000000   0.000000  
; MH17689
62052283         1509.000000 14.500000  0.000000   0.000000   0.000000  
; MH17707
62052327         1539.670000 10.830000  0.000000   0.000000   0.000000  
; MH17708
62052331         1537.920000 12.880000  0.000000   0.000000   0.000000  
; MH17709
62052335         1518.730000 10.170000  0.000000   0.000000   0.000000  
; MH17706
62052339         1516.320000 10.680000  0.000000   0.000000   0.000000  
; MH17705
62052343         1517.100000 10.090000  0.000000   0.000000   0.000000  
; MH17704
62052347         1517.860000 10.540000  0.000000   0.000000   0.000000  
; MH17690
62052351         1511.000000 13.500000  0.000000   0.000000   0.000000  
; MH18296
62052355         1522.580000 8.110000   0.000000   0.000000   0.000000  
; MH17691
62052363         1512.600000 11.400000  0.000000   0.000000   0.000000  
; MH17692
62052367         1514.440000 10.360000  0.000000   0.000000   0.000000  
; MH17693
62052371         1516.010000 9.490000   0.000000   0.000000   0.000000  
; MH17694
62052375         1517.680000 8.510000   0.000000   0.000000   0.000000  
; MH17700
62052399         1527.550000 9.350000   0.000000   0.000000   0.000000  
; MH17699
62052405         1525.980000 9.020000   0.000000   0.000000   0.000000  
; MH22175
62052413         1514.330000 9.860000   0.000000   0.000000   0.000000  
; MH17829
62053994         1504.000000 8.400000   0.000000   0.000000   0.000000  
; MH17828
62053998         1505.020000 6.980000   0.000000   0.000000   0.000000  
; MH17835
62054002         1501.000000 10.500000  0.000000   0.000000   0.000000  
; MH17834
62054006         1501.920000 9.580000   0.000000   0.000000   0.000000  
; MH17832
62054010         1502.970000 9.220000   0.000000   0.000000   0.000000  
; MH17833
62054014         1502.440000 9.250000   0.000000   0.000000   0.000000  
; MH17831
62054018         1503.510000 8.790000   0.000000   0.000000   0.000000  
; MH17830
62054022         1504.040000 7.960000   0.000000   0.000000   0.000000  
; MH17827
62054026         1505.600000 5.990000   0.000000   0.000000   0.000000  
; MH18191
62055406         1510.450000 11.570000  0.000000   0.000000   0.000000  
; MH18152
62055410         1503.670000 16.520000  0.000000   0.000000   0.000000  
; MH18170
62055414         1504.690000 15.290000  0.000000   0.000000   0.000000  
; MH18167
62055431         1508.320000 12.980000  0.000000   0.000000   0.000000  
; MH18176
62055435         1509.000000 12.850000  0.000000   0.000000   0.000000  
; MH17754
62055447         1519.070000 11.230000  0.000000   0.000000   0.000000  
; MH17753
62055451         1519.850000 11.950000  0.000000   0.000000   0.000000  
; MH17752
62055455         1520.630000 12.590000  0.000000   0.000000   0.000000  
; MH17751
62055459         1521.120000 14.490000  0.000000   0.000000   0.000000  
; MH18196
62055635         1511.820000 11.000000  0.000000   0.000000   0.000000  
; MH17960
62055675         1518.270000 10.860000  0.000000   0.000000   0.000000  
; MH17961
62055679         1520.270000 12.410000  0.000000   0.000000   0.000000  
; MH17962
62055683         1522.270000 12.480000  0.000000   0.000000   0.000000  
; MH17963
62055687         1524.270000 12.670000  0.000000   0.000000   0.000000  
; MH17965
62055691         1528.000000 13.090000  0.000000   0.000000   0.000000  
; MH17964
62055699         1526.270000 13.000000  0.000000   0.000000   0.000000  
; MH17759
62055779         1514.000000 13.190000  0.000000   0.000000   0.000000  
; MH18038
62055783         1515.500000 12.800000  0.000000   0.000000   0.000000  
; MH18031
62055788         1516.890000 12.200000  0.000000   0.000000   0.000000  
; MH18287
62055792         1517.450000 12.050000  0.000000   0.000000   0.000000  
; MH17755
62055796         1518.300000 11.790000  0.000000   0.000000   0.000000  
; MH18023
62055800         1526.000000 13.200000  0.000000   0.000000   0.000000  
; MH18295
62055809         1521.540000 14.110000  0.000000   0.000000   0.000000  
; MH18169
62055829         1505.910000 14.440000  0.000000   0.000000   0.000000  
; MH18168
62055833         1507.110000 13.830000  0.000000   0.000000   0.000000  
; MH17758
62055837         1515.050000 12.950000  0.000000   0.000000   0.000000  
; MH17757
62055841         1515.820000 13.770000  0.000000   0.000000   0.000000  
; MH17756
62055845         1516.600000 13.200000  0.000000   0.000000   0.000000  
; MH18197
62055855         1510.060000 11.880000  0.000000   0.000000   0.000000  
; MH18024
62055859         1523.450000 12.350000  0.000000   0.000000   0.000000  
; MH17750
62055887         1522.190000 13.500000  0.000000   0.000000   0.000000  
; MH17749
62055891         1523.040000 13.790000  0.000000   0.000000   0.000000  
; MH17718
62076231         1554.040000 10.960000  0.000000   0.000000   0.000000  
; MH17897
62076235         1555.970000 9.120000   0.000000   0.000000   0.000000  
; MH17722
62076239         1556.640000 8.450000   0.000000   0.000000   0.000000  
; MH17890
62076243         1557.190000 8.710000   0.000000   0.000000   0.000000  
; MH17711
62076255         1545.190000 11.310000  0.000000   0.000000   0.000000  
; MH17712
62076259         1544.670000 11.520000  0.000000   0.000000   0.000000  
; MH17713
62076263         1543.170000 11.020000  0.000000   0.000000   0.000000  
; MH17714
62076267         1541.420000 11.170000  0.000000   0.000000   0.000000  
; MH17822
62076379         1557.180000 6.820000   0.000000   0.000000   0.000000  
; MH17815
62076383         1518.000000 45.000000  0.000000   0.000000   0.000000  
; MH17814
62076387         1561.900000 2.600000   0.000000   0.000000   0.000000  
; MH17710
62076411         1546.170000 10.830000  0.000000   0.000000   0.000000  
; MH17717
62076415         1547.540000 11.050000  0.000000   0.000000   0.000000  
; MH17821
62076427         1556.140000 10.360000  0.000000   0.000000   0.000000  
; MH17816
62076439         1547.880000 12.620000  0.000000   0.000000   0.000000  
; MH17719
62076513         1552.690000 11.560000  0.000000   0.000000   0.000000  
; MH17721
62076537         1555.330000 9.760000   0.000000   0.000000   0.000000  
; MH18065
62086564         1497.210000 12.710000  0.000000   0.000000   0.000000  
; MH18254
62086592         1498.940000 12.860000  0.000000   0.000000   0.000000  
; MH18049
62086732         1504.980000 8.610000   0.000000   0.000000   0.000000  
; MH18064
62086736         1502.670000 10.330000  0.000000   0.000000   0.000000  
; MH18063
62086740         1500.940000 10.910000  0.000000   0.000000   0.000000  
; MH20930
62086893         1494.650000 17.250000  0.000000   0.000000   0.000000  
; MH17748
62105640         1523.810000 12.850000  0.000000   0.000000   0.000000  
; MH17747
62105645         1524.650000 12.540000  0.000000   0.000000   0.000000  
; MH17744
62105649         1525.430000 12.160000  0.000000   0.000000   0.000000  
; MH17745
62105653         1526.200000 11.990000  0.000000   0.000000   0.000000  
; MH17746
62105657         1526.980000 11.210000  0.000000   0.000000   0.000000  
; MH17733
62105689         1538.320000 11.480000  0.000000   0.000000   0.000000  
; MH17740
62105693         1536.460000 10.130000  0.000000   0.000000   0.000000  
; MH17739
62105697         1534.640000 9.860000   0.000000   0.000000   0.000000  
; MH17738
62105701         1532.430000 10.570000  0.000000   0.000000   0.000000  
; MH17742
62105713         1528.550000 10.640000  0.000000   0.000000   0.000000  
; MH17741
62105717         1529.320000 10.870000  0.000000   0.000000   0.000000  
; MH17737
62105721         1530.000000 11.190000  0.000000   0.000000   0.000000  
; MH17735
62105827         1539.750000 11.750000  0.000000   0.000000   0.000000  
; MH17743
62105867         1527.770000 11.230000  0.000000   0.000000   0.000000  
; MH17781
62117490         1567.000000 9.000000   0.000000   0.000000   0.000000  
; MH17725
62117510         1566.000000 9.590000   0.000000   0.000000   0.000000  
; MH17796
62117559         1575.590000 9.100000   0.000000   0.000000   0.000000  
; MH17795
62117563         1575.270000 8.730000   0.000000   0.000000   0.000000  
; MH17794
62117567         1574.000000 8.300000   0.000000   0.000000   0.000000  
; MH17723
62117587         1558.060000 11.740000  0.000000   0.000000   0.000000  
; MH17782
62117591         1568.350000 9.840000   0.000000   0.000000   0.000000  
; MH17780
62117595         1565.760000 8.830000   0.000000   0.000000   0.000000  
; MH17783
62117619         1569.540000 10.460000  0.000000   0.000000   0.000000  
; MH17728
62117623         1565.640000 9.550000   0.000000   0.000000   0.000000  
; MH17860
62117635         1561.650000 10.560000  0.000000   0.000000   0.000000  
; MH17787
62117639         1560.758000 12.432000  0.000000   0.000000   0.000000  
; MH17910
62117643         1560.710000 12.980000  0.000000   0.000000   0.000000  
; MH18293
62117647         1565.040000 9.260000   0.000000   0.000000   0.000000  
; MH17731
62117651         1567.390000 8.800000   0.000000   0.000000   0.000000  
; MH17730
62117655         1568.680000 7.510000   0.000000   0.000000   0.000000  
; MH17729
62117659         1569.980000 7.020000   0.000000   0.000000   0.000000  
; MH17732
62117663         1571.000000 8.000000   0.000000   0.000000   0.000000  
; MH17724
62117685         1559.000000 13.500000  0.000000   0.000000   0.000000  
; MH17727
62117693         1562.350000 11.240000  0.000000   0.000000   0.000000  
; MH17917
62117697         1564.000000 9.800000   0.000000   0.000000   0.000000  
; MH17669
62117703         1564.000000 9.900000   0.000000   0.000000   0.000000  
; MH17428
62687847         1496.590000 17.840000  0.000000   0.000000   0.000000  
; MH17429
62687851         1498.000000 16.230000  0.000000   0.000000   0.000000  
; MH17246
62687859         1495.790000 17.800000  0.000000   0.000000   0.000000  
; MH17338
62687904         1500.790000 18.060000  0.000000   0.000000   0.000000  
; MH17337
62687908         1499.980000 16.870000  0.000000   0.000000   0.000000  
; MH17336
62687912         1499.210000 15.980000  0.000000   0.000000   0.000000  
; MH17379
62688021         1500.000000 17.400000  0.000000   0.000000   0.000000  
; MH17245
62688041         1497.000000 17.300000  0.000000   0.000000   0.000000  
; MH17239
62688055         1503.860000 16.540000  0.000000   0.000000   0.000000  
; MH17238
62688059         1502.580000 16.220000  0.000000   0.000000   0.000000  
; MH17243
62688063         1501.510000 16.890000  0.000000   0.000000   0.000000  
; MH17242
62688067         1500.060000 18.240000  0.000000   0.000000   0.000000  
; MH17241
62688075         1498.420000 17.480000  0.000000   0.000000   0.000000  
; MH17240
62688079         1505.070000 16.730000  0.000000   0.000000   0.000000  
; MH17256
62691597         1530.000000 20.090000  0.000000   0.000000   0.000000  
; MH17404
62691601         1530.840000 19.750000  0.000000   0.000000   0.000000  
; MH17403
62691605         1531.210000 18.980000  0.000000   0.000000   0.000000  
; MH17401
62691609         1531.640000 17.660000  0.000000   0.000000   0.000000  
; MH17254
62691613         1527.610000 19.390000  0.000000   0.000000   0.000000  
; MH17253
62691617         1525.050000 19.750000  0.000000   0.000000   0.000000  
; MH17252
62691621         1522.570000 19.120000  0.000000   0.000000   0.000000  
; MH17250
62691625         1520.110000 18.890000  0.000000   0.000000   0.000000  
; MH17249
62691629         1517.650000 19.350000  0.000000   0.000000   0.000000  
; MH17237
62691633         1507.590000 16.000000  0.000000   0.000000   0.000000  
; MH17234
62691637         1509.000000 16.300000  0.000000   0.000000   0.000000  
; MH17235
62691641         1510.800000 16.790000  0.000000   0.000000   0.000000  
; MH17516
62691645         1512.030000 16.970000  0.000000   0.000000   0.000000  
; MH17517
62691649         1513.220000 18.280000  0.000000   0.000000   0.000000  
; MH17518
62691653         1514.000000 20.400000  0.000000   0.000000   0.000000  
; MH17402
62691657         1531.510000 18.180000  0.000000   0.000000   0.000000  
; MH17248
62691661         1514.720000 20.370000  0.000000   0.000000   0.000000  
; MH17236
62691665         1506.150000 16.850000  0.000000   0.000000   0.000000  
; MH17269
62692652         1563.000000 26.690000  0.000000   0.000000   0.000000  
; MH17268
62692656         1572.830000 15.670000  0.000000   0.000000   0.000000  
; MH17267
62692660         1569.420000 15.170000  0.000000   0.000000   0.000000  
; MH17266
62692664         1565.970000 14.930000  0.000000   0.000000   0.000000  
; MH17265
62692668         1552.000000 25.690000  0.000000   0.000000   0.000000  
; MH17257
62692672         1534.210000 19.480000  0.000000   0.000000   0.000000  
; MH17258
62692676         1537.730000 19.070000  0.000000   0.000000   0.000000  
; MH17259
62692680         1541.210000 18.980000  0.000000   0.000000   0.000000  
; MH17260
62692684         1544.730000 19.360000  0.000000   0.000000   0.000000  
; MH17261
62692688         1548.210000 17.880000  0.000000   0.000000   0.000000  
; MH17264
62692692         1558.930000 15.260000  0.000000   0.000000   0.000000  
; MH17262
62692696         1551.760000 16.040000  0.000000   0.000000   0.000000  
; MH17263
62692700         1555.000000 15.690000  0.000000   0.000000   0.000000  
; MH17356
62695013         1503.400000 16.500000  0.000000   0.000000   0.000000  
; MH17340
62695017         1502.220000 14.730000  0.000000   0.000000   0.000000  
; MH17350
62695037         1506.760000 13.240000  0.000000   0.000000   0.000000  
; MH17362
62695046         1509.090000 12.360000  0.000000   0.000000   0.000000  
; MH17348
62695050         1508.020000 12.570000  0.000000   0.000000   0.000000  
; MH17364
62695056         1504.000000 16.100000  0.000000   0.000000   0.000000  
; MH17349
62695060         1505.190000 13.490000  0.000000   0.000000   0.000000  
; MH17452
62695064         1506.060000 11.480000  0.000000   0.000000   0.000000  
; MH17454
62695068         1507.030000 11.470000  0.000000   0.000000   0.000000  
; MH17347
62695084         1505.660000 14.430000  0.000000   0.000000   0.000000  
; MH17455
62695092         1508.080000 11.920000  0.000000   0.000000   0.000000  
; MH17442
62695096         1506.680000 10.510000  0.000000   0.000000   0.000000  
; MH17437
62695100         1505.900000 12.600000  0.000000   0.000000   0.000000  
; MH17438