[TITLE]
;;Project Title/Notes

[OPTIONS]
;;Option             Value
FLOW_UNITS           LPS
INFILTRATION         HORTON
FLOW_ROUTING         DYNWAVE
LINK_OFFSETS         DEPTH
MIN_SLOPE            0
ALLOW_PONDING        YES
SKIP_STEADY_STATE    NO

START_DATE           01/01/2002
START_TIME           00:00:00
REPORT_START_DATE    01/01/2002
REPORT_START_TIME    00:00:00
END_DATE             01/01/2002
END_TIME             23:00:00
SWEEP_START          01/01
SWEEP_END            12/31
DRY_DAYS             5.000000
REPORT_STEP          00:05:00
WET_STEP             01:00:00
DRY_STEP             23:00:00
ROUTING_STEP         0:00:02 

INERTIAL_DAMPING     NONE
NORMAL_FLOW_LIMITED  SLOPE
FORCE_MAIN_EQUATION  H-W
VARIABLE_STEP        0.87
LENGTHENING_STEP     11
MIN_SURFAREA         1.14
MAX_TRIALS           8
HEAD_TOLERANCE       0.0015
SYS_FLOW_TOL         5
LAT_FLOW_TOL         5
MINIMUM_STEP         0.5
THREADS              1

[EVAPORATION]
;;Data Source    Parameters
;;-------------- ----------------
CONSTANT         0.0
DRY_ONLY         NO

[JUNCTIONS]
;;Name           Elevation  MaxDepth   InitDepth  SurDepth   Aponded   
;;-------------- ---------- ---------- ---------- ---------- ----------
17601            128.920000 5.316919   0.000000   0.000000   0.000000  
22401            48.000000  2.002017   0.000000   0.000000   0.000000  
; Rim below invert (Manually fixed)
22722            16.860000  3.410000   0.000000   0.000000   0.000000  
22723            17.680000  2.372000   0.000000   0.000000   0.000000  
22724            114.050000 3.874790   0.000000   0.000000   0.000000  
22725            106.300000 4.120000   0.000000   0.000000   0.000000  
; Rim below invert (Manually fixed)
22726            110.420000 0.640000   0.000000   0.000000   0.000000  
; Rim below invert (Manually fixed)
22727            113.360000 0.000000   0.000000   0.000000   0.000000  
24966            136.740000 3.180846   0.000000   0.000000   0.000000  
24967            140.670000 1.656019   0.000000   0.000000   0.000000  
24968            141.390000 5.835574   0.000000   0.000000   0.000000  
25283            56.020000  2.463040   0.000000   0.000000   0.000000  
25284            57.120000  0.999861   0.000000   0.000000   0.000000  
25285            57.120000  2.501357   0.000000   0.000000   0.000000  
; Rim below invert (Manually fixed)
25603            83.450000  0.000000   0.000000   0.000000   0.000000  
25604            56.430000  2.115865   0.000000   0.000000   0.000000  
25606            56.780000  3.713971   0.000000   0.000000   0.000000  
25607            57.280000  2.017847   0.000000   0.000000   0.000000  
25608            50.080000  10.603820  0.000000   0.000000   0.000000  
25609            59.330000  3.832529   0.000000   0.000000   0.000000  
25610            63.840000  4.327122   0.000000   0.000000   0.000000  
25611            73.430000  5.161459   0.000000   0.000000   0.000000  
28163            13.660000  4.136468   0.000000   0.000000   0.000000  
28164            12.500000  5.040315   0.000000   0.000000   0.000000  
29444            132.180000 5.372129   0.000000   0.000000   0.000000  
29450            5.150000   3.047956   0.000000   0.000000   0.000000  
29453            12.400000  3.350633   0.000000   0.000000   0.000000  
30085            143.600000 2.980298   0.000000   0.000000   0.000000  
30723            33.090000  2.725110   0.000000   0.000000   0.000000  
33928            3.160000   4.500140   0.000000   0.000000   0.000000  
33929            3.870000   2.688281   0.000000   0.000000   0.000000  
36169            17.490000  8.456874   0.000000   0.000000   0.000000  
36171            75.650000  4.254595   0.000000   0.000000   0.000000  
36172            69.010000  2.766374   0.000000   0.000000   0.000000  
36173            67.610000  3.169383   0.000000   0.000000   0.000000  
36489            102.820000 2.582113   0.000000   0.000000   0.000000  
36490            104.620000 2.451510   0.000000   0.000000   0.000000  
36491            113.150000 1.367357   0.000000   0.000000   0.000000  
36492            118.360000 1.910044   0.000000   0.000000   0.000000  
36493            99.870000  2.435394   0.000000   0.000000   0.000000  
36494            91.940000  2.246259   0.000000   0.000000   0.000000  
36495            90.350000  1.476856   0.000000   0.000000   0.000000  
36496            82.850000  4.318395   0.000000   0.000000   0.000000  
36807            36.580000  1.703416   0.000000   0.000000   0.000000  
36808            37.100000  1.720024   0.000000   0.000000   0.000000  
38403            47.230000  4.770000   0.000000   0.000000   0.000000  
38404            47.800000  2.247549   0.000000   0.000000   0.000000  
38405            45.160000  2.801010   0.000000   0.000000   0.000000  
38406            49.160000  2.894347   0.000000   0.000000   0.000000  
40643            95.860000  1.919340   0.000000   0.000000   0.000000  
40644            98.520000  1.674618   0.000000   0.000000   0.000000  
40645            91.430000  3.376107   0.000000   0.000000   0.000000  
40646            99.380000  2.085398   0.000000   0.000000   0.000000  
40647            94.950000  2.764362   0.000000   0.000000   0.000000  
40648            101.460000 3.333912   0.000000   0.000000   0.000000  
40649            101.050000 1.084535   0.000000   0.000000   0.000000  
; Rim below invert (Manually fixed)
40650            78.320000  2.880000   0.000000   0.000000   0.000000  
40651            78.320000  3.809208   0.000000   0.000000   0.000000  
40652            79.710000  4.060292   0.000000   0.000000   0.000000  
40653            82.880000  4.079244   0.000000   0.000000   0.000000  
; Rim below invert (Manually fixed)
40654            84.010000  3.230000   0.000000   0.000000   0.000000  
40655            89.020000  2.176022   0.000000   0.000000   0.000000  
41928            64.970000  0.818000   0.000000   0.000000   0.000000  
41929            63.570000  1.835111   0.000000   0.000000   0.000000  
41930            63.000000  1.000000   0.000000   0.000000   0.000000  
41931            62.780000  1.043341   0.000000   0.000000   0.000000  
41932            64.950000  3.675897   0.000000   0.000000   0.000000  
41933            65.880000  5.462779   0.000000   0.000000   0.000000  
41934            69.440000  4.544813   0.000000   0.000000   0.000000  
42243            75.760000  2.899262   0.000000   0.000000   0.000000  
42244            78.590000  2.168986   0.000000   0.000000   0.000000  
42245            83.260000  3.746459   0.000000   0.000000   0.000000  
42246            88.260000  3.650920   0.000000   0.000000   0.000000  
42247            91.240000  2.752668   0.000000   0.000000   0.000000  
42250            95.320000  2.099994   0.000000   0.000000   0.000000  
42251            100.560000 1.784099   0.000000   0.000000   0.000000  
42563            21.100000  1.903270   0.000000   0.000000   0.000000  
42883            36.700000  2.954189   0.000000   0.000000   0.000000  
42884            29.510000  2.859297   0.000000   0.000000   0.000000  
42885            35.000000  3.010051   0.000000   0.000000   0.000000  
; Rim below invert (Manually fixed)
43524            89.820000  0.180000   0.000000   0.000000   0.000000  
; Rim below invert (Manually fixed)
43525            89.390000  0.610000   0.000000   0.000000   0.000000  
43526            92.010000  0.453630   0.000000   0.000000   0.000000  
; Rim below invert (Manually fixed)
43527            85.530000  0.470000   0.000000   0.000000   0.000000  
4373             26.390000  2.241364   0.000000   0.000000   0.000000  
4374             24.860000  2.693888   0.000000   0.000000   0.000000  
4375             23.630000  2.498432   0.000000   0.000000   0.000000  
4376             23.310000  3.041922   0.000000   0.000000   0.000000  
4377             23.210000  2.880930   0.000000   0.000000   0.000000  
4378             23.100000  3.003825   0.000000   0.000000   0.000000  
4379             22.650000  3.723667   0.000000   0.000000   0.000000  
4380             22.270000  2.238329   0.000000   0.000000   0.000000  
4381             22.010000  2.055361   0.000000   0.000000   0.000000  
4382             21.290000  2.291506   0.000000   0.000000   0.000000  
4383             21.010000  0.770155   0.000000   0.000000   0.000000  
4384             17.950000  2.064318   0.000000   0.000000   0.000000  
43843            87.720000  3.937164   0.000000   0.000000   0.000000  
43845            92.130000  3.557218   0.000000   0.000000   0.000000  
43847            94.860000  2.171973   0.000000   0.000000   0.000000  
43848            100.490000 0.933844   0.000000   0.000000   0.000000  
4385             19.530000  0.882448   0.000000   0.000000   0.000000  
4386             16.600000  2.236331   0.000000   0.000000   0.000000  
4387             16.170000  0.327055   0.000000   0.000000   0.000000  
4388             14.700000  2.158435   0.000000   0.000000   0.000000  
4389             10.930000  5.587991   0.000000   0.000000   0.000000  
4390             11.960000  4.411984   0.000000   0.000000   0.000000  
4391             12.700000  4.547959   0.000000   0.000000   0.000000  
4392             15.280000  2.356007   0.000000   0.000000   0.000000  
4393             16.290000  1.711768   0.000000   0.000000   0.000000  
4394             18.350000  2.056951   0.000000   0.000000   0.000000  
4395             19.400000  2.609866   0.000000   0.000000   0.000000  
4396             20.490000  1.532020   0.000000   0.000000   0.000000  
4397             20.330000  1.647698   0.000000   0.000000   0.000000  
4398             20.930000  2.442067   0.000000   0.000000   0.000000  
4399             21.240000  2.790000   0.000000   0.000000   0.000000  
4400             15.860000  3.315157   0.000000   0.000000   0.000000  
4401             18.260000  1.745622   0.000000   0.000000   0.000000  
4402             16.720000  2.242475   0.000000   0.000000   0.000000  
4403             17.220000  1.949557   0.000000   0.000000   0.000000  
4404             18.580000  1.469677   0.000000   0.000000   0.000000  
4405             18.830000  1.153188   0.000000   0.000000   0.000000  
4406             20.830000  2.261179   0.000000   0.000000   0.000000  
; Rim below invert (Manually fixed)
4407             28.490000  1.550000   0.000000   0.000000   0.000000  
4408             19.440000  0.607538   0.000000   0.000000   0.000000  
4409             32.330000  0.642533   0.000000   0.000000   0.000000  
4410             33.440000  2.080000   0.000000   0.000000   0.000000  
4411             18.560000  1.470561   0.000000   0.000000   0.000000  
4412             16.910000  2.848423   0.000000   0.000000   0.000000  
4413             17.350000  2.591900   0.000000   0.000000   0.000000  
4414             14.730000  3.764304   0.000000   0.000000   0.000000  
4415             14.320000  2.476824   0.000000   0.000000   0.000000  
4416             13.980000  3.775796   0.000000   0.000000   0.000000  
4417             14.870000  3.134066   0.000000   0.000000   0.000000  
4418             15.250000  3.152716   0.000000   0.000000   0.000000  
4419             16.060000  1.940000   0.000000   0.000000   0.000000  
4420             17.250000  1.526297   0.000000   0.000000   0.000000  
4421             18.100000  1.579496   0.000000   0.000000   0.000000  
4422             16.700000  1.642981   0.000000   0.000000   0.000000  
4423             15.950000  2.081351   0.000000   0.000000   0.000000  
4424             17.820000  1.561463   0.000000   0.000000   0.000000  
4425             17.240000  1.627123   0.000000   0.000000   0.000000  
4426             17.390000  1.474275   0.000000   0.000000   0.000000  
4427             17.610000  1.614663   0.000000   0.000000   0.000000  
4428             17.780000  1.775949   0.000000   0.000000   0.000000  
4429             18.050000  1.367756   0.000000   0.000000   0.000000  
4430             18.440000  0.664893   0.000000   0.000000   0.000000  
4431             19.210000  1.122885   0.000000   0.000000   0.000000  
4432             17.970000  2.022229   0.000000   0.000000   0.000000  
4433             19.160000  2.560341   0.000000   0.000000   0.000000  
4434             19.390000  2.283859   0.000000   0.000000   0.000000  
4435             19.880000  1.962568   0.000000   0.000000   0.000000  
4436             23.280000  2.359436   0.000000   0.000000   0.000000  
4437             20.310000  1.737712   0.000000   0.000000   0.000000  
4438             29.050000  2.965000   0.000000   0.000000   0.000000  
4439             20.620000  1.810830   0.000000   0.000000   0.000000  
4440             22.150000  1.801064   0.000000   0.000000   0.000000  
4441             26.310000  1.830011   0.000000   0.000000   0.000000  
4442             25.350000  3.037000   0.000000   0.000000   0.000000  
4443             28.100000  1.877862   0.000000   0.000000   0.000000  
4444             30.740000  2.970000   0.000000   0.000000   0.000000  
4445             13.090000  3.504285   0.000000   0.000000   0.000000  
4446             12.930000  3.568159   0.000000   0.000000   0.000000  
4447             14.940000  2.675250   0.000000   0.000000   0.000000  
4448             16.060000  2.812166   0.000000   0.000000   0.000000  
4449             17.200000  2.351139   0.000000   0.000000   0.000000  
4450             16.120000  1.812747   0.000000   0.000000   0.000000  
4451             17.340000  1.558966   0.000000   0.000000   0.000000  
4452             20.150000  1.636270   0.000000   0.000000   0.000000  
4453             20.920000  3.616367   0.000000   0.000000   0.000000  
4454             19.840000  0.634442   0.000000   0.000000   0.000000  
4455             17.340000  2.188016   0.000000   0.000000   0.000000  
4456             17.970000  1.783129   0.000000   0.000000   0.000000  
4457             19.000000  1.360499   0.000000   0.000000   0.000000  
4458             19.580000  0.818265   0.000000   0.000000   0.000000  
4459             21.310000  1.741757   0.000000   0.000000   0.000000  
4460             20.480000  2.130114   0.000000   0.000000   0.000000  
4461             11.290000  5.192297   0.000000   0.000000   0.000000  
4462             15.320000  2.673509   0.000000   0.000000   0.000000  
4463             16.450000  1.550000   0.000000   0.000000   0.000000  
4464             13.760000  2.454613   0.000000   0.000000   0.000000  
4465             13.880000  2.118876   0.000000   0.000000   0.000000  
4466             14.440000  2.427984   0.000000   0.000000   0.000000  
4467             14.970000  2.783960   0.000000   0.000000   0.000000  
4468             15.240000  2.691260   0.000000   0.000000   0.000000  
4469             16.170000  1.829419   0.000000   0.000000   0.000000  
4470             16.480000  1.536306   0.000000   0.000000   0.000000  
4471             17.950000  1.729125   0.000000   0.000000   0.000000  
4472             19.110000  2.185206   0.000000   0.000000   0.000000  
4473             17.630000  1.681864   0.000000   0.000000   0.000000  
4474             18.310000  1.079481   0.000000   0.000000   0.000000  
4475             17.270000  1.758544   0.000000   0.000000   0.000000  
4476             18.070000  1.633397   0.000000   0.000000   0.000000  
4477             18.700000  1.306484   0.000000   0.000000   0.000000  
4478             19.940000  2.771204   0.000000   0.000000   0.000000  
4479             23.000000  2.475112   0.000000   0.000000   0.000000  
4480             24.690000  2.825868   0.000000   0.000000   0.000000  
44803            48.480000  2.056718   0.000000   0.000000   0.000000  
4481             28.460000  3.791232   0.000000   0.000000   0.000000  
4482             24.540000  3.265708   0.000000   0.000000   0.000000  
4483             23.360000  3.753828   0.000000   0.000000   0.000000  
4484             24.380000  1.844635   0.000000   0.000000   0.000000  
4485             16.180000  3.364831   0.000000   0.000000   0.000000  
4486             15.850000  3.316220   0.000000   0.000000   0.000000  
4487             16.860000  2.694103   0.000000   0.000000   0.000000  
4488             18.040000  2.246400   0.000000   0.000000   0.000000  
4489             14.510000  1.987592   0.000000   0.000000   0.000000  
4490             13.980000  4.024000   0.000000   0.000000   0.000000  
4491             12.060000  5.412367   0.000000   0.000000   0.000000  
4492             13.980000  4.020170   0.000000   0.000000   0.000000  
4493             16.190000  3.000821   0.000000   0.000000   0.000000  
4494             17.850000  0.949009   0.000000   0.000000   0.000000  
4495             16.730000  1.664957   0.000000   0.000000   0.000000  
4496             16.050000  1.950000   0.000000   0.000000   0.000000  
4497             15.460000  1.668504   0.000000   0.000000   0.000000  
4498             14.530000  2.557112   0.000000   0.000000   0.000000  
4499             16.040000  1.852782   0.000000   0.000000   0.000000  
4500             16.940000  1.060123   0.000000   0.000000   0.000000  
4501             15.420000  2.578353   0.000000   0.000000   0.000000  
4502             15.340000  2.554539   0.000000   0.000000   0.000000  
4503             16.870000  1.156275   0.000000   0.000000   0.000000  
4504             16.610000  1.977961   0.000000   0.000000   0.000000  
4505             16.010000  2.016652   0.000000   0.000000   0.000000  
4506             16.200000  1.945060   0.000000   0.000000   0.000000  
4507             15.800000  2.388773   0.000000   0.000000   0.000000  
4508             13.800000  4.203857   0.000000   0.000000   0.000000  
4509             15.230000  2.717819   0.000000   0.000000   0.000000  
4510             15.700000  2.270544   0.000000   0.000000   0.000000  
4511             11.990000  5.209928   0.000000   0.000000   0.000000  
4512             12.310000  4.508833   0.000000   0.000000   0.000000  
; Rim below invert (Manually fixed)
45123            43.080000  1.920000   0.000000   0.000000   0.000000  
45124            43.510000  1.951077   0.000000   0.000000   0.000000  
45125            44.800000  0.880921   0.000000   0.000000   0.000000  
45126            44.200000  1.854404   0.000000   0.000000   0.000000  
4513             12.540000  2.971069   0.000000   0.000000   0.000000  
4514             13.560000  2.834476   0.000000   0.000000   0.000000  
4515             14.440000  2.984333   0.000000   0.000000   0.000000  
4516             15.320000  2.315334   0.000000   0.000000   0.000000  
4517             9.760000   5.389936   0.000000   0.000000   0.000000  
4518             9.610000   5.124677   0.000000   0.000000   0.000000  
4519             11.980000  3.277594   0.000000   0.000000   0.000000  
4520             21.510000  1.148434   0.000000   0.000000   0.000000  
4521             18.820000  1.347937   0.000000   0.000000   0.000000  
4522             19.030000  2.925505   0.000000   0.000000   0.000000  
4524             14.900000  1.963353   0.000000   0.000000   0.000000  
4525             15.170000  2.423056   0.000000   0.000000   0.000000  
4526             23.720000  0.972131   0.000000   0.000000   0.000000  
4527             23.870000  1.764926   0.000000   0.000000   0.000000  
4528             12.460000  3.429317   0.000000   0.000000   0.000000  
4529             12.300000  3.192204   0.000000   0.000000   0.000000  
4530             12.250000  3.921049   0.000000   0.000000   0.000000  
4531             12.490000  2.906793   0.000000   0.000000   0.000000  
4532             17.540000  2.288510   0.000000   0.000000   0.000000  
45443            36.640000  2.547589   0.000000   0.000000   0.000000  
; Rim below invert (Manually fixed)
45444            42.310000  1.114809   0.000000   0.000000   0.000000  
45445            34.810000  1.775606   0.000000   0.000000   0.000000  
45446            42.240000  1.090929   0.000000   0.000000   0.000000  
4614             57.250000  3.279134   0.000000   0.000000   0.000000  
4615             48.700000  3.716194   0.000000   0.000000   0.000000  
4616             45.830000  3.402524   0.000000   0.000000   0.000000  
4617             38.670000  3.411908   0.000000   0.000000   0.000000  
4618             56.900000  1.179063   0.000000   0.000000   0.000000  
4619             48.220000  3.723674   0.000000   0.000000   0.000000  
; Rim below invert (Manually fixed)
4620             62.000000  3.387489   0.000000   0.000000   0.000000  
; Rim below invert (Manually fixed)
4621             67.680000  2.284084   0.000000   0.000000   0.000000  
4622             70.080000  4.861154   0.000000   0.000000   0.000000  
4623             87.220000  1.874576   0.000000   0.000000   0.000000  
4624             59.620000  2.147645   0.000000   0.000000   0.000000  
4625             55.900000  4.299979   0.000000   0.000000   0.000000  
4626             52.750000  3.033282   0.000000   0.000000   0.000000  
4627             63.690000  4.221995   0.000000   0.000000   0.000000  
4628             75.560000  3.805013   0.000000   0.000000   0.000000  
4629             51.870000  2.190383   0.000000   0.000000   0.000000  
4630             55.850000  1.213375   0.000000   0.000000   0.000000  
4631             44.910000  2.384120   0.000000   0.000000   0.000000  
4632             59.490000  2.789059   0.000000   0.000000   0.000000  
4704             129.530000 2.123888   0.000000   0.000000   0.000000  
4705             120.650000 3.256943   0.000000   0.000000   0.000000  
4706             124.550000 2.991851   0.000000   0.000000   0.000000  
4707             119.430000 1.891639   0.000000   0.000000   0.000000  
4708             113.720000 3.153793   0.000000   0.000000   0.000000  
4728             113.570000 2.237527   0.000000   0.000000   0.000000  
4729             109.140000 3.345701   0.000000   0.000000   0.000000  
4730             106.190000 4.821760   0.000000   0.000000   0.000000  
4731             117.410000 2.540700   0.000000   0.000000   0.000000  
4732             120.740000 1.900818   0.000000   0.000000   0.000000  
4733             133.480000 2.110927   0.000000   0.000000   0.000000  
4750             66.830000  2.219645   0.000000   0.000000   0.000000  
4751             58.060000  3.479793   0.000000   0.000000   0.000000  
4752             73.800000  3.288400   0.000000   0.000000   0.000000  
4753             67.180000  4.789010   0.000000   0.000000   0.000000  
4754             80.130000  1.507976   0.000000   0.000000   0.000000  
4755             74.560000  2.847062   0.000000   0.000000   0.000000  
4756             48.610000  4.127415   0.000000   0.000000   0.000000  
4757             36.870000  3.563000   0.000000   0.000000   0.000000  
4758             51.470000  2.132504   0.000000   0.000000   0.000000  
4760             53.020000  2.707963   0.000000   0.000000   0.000000  
4761             43.640000  2.777723   0.000000   0.000000   0.000000  
4762             53.730000  2.088979   0.000000   0.000000   0.000000  
4763             47.550000  1.948612   0.000000   0.000000   0.000000  
4764             57.530000  3.708420   0.000000   0.000000   0.000000  
4765             56.890000  2.009297   0.000000   0.000000   0.000000  
4766             47.460000  1.936178   0.000000   0.000000   0.000000  
4767             60.060000  2.217771   0.000000   0.000000   0.000000  
4768             63.960000  0.505299   0.000000   0.000000   0.000000  
4769             66.200000  3.298882   0.000000   0.000000   0.000000  
4770             60.380000  1.777090   0.000000   0.000000   0.000000  
4771             60.840000  2.211964   0.000000   0.000000   0.000000  
4772             54.480000  2.211199   0.000000   0.000000   0.000000  
4773             65.720000  2.612052   0.000000   0.000000   0.000000  
4774             73.470000  0.995746   0.000000   0.000000   0.000000  
4775             65.880000  4.307601   0.000000   0.000000   0.000000  
4776             72.750000  7.212562   0.000000   0.000000   0.000000  
4777             86.110000  3.475116   0.000000   0.000000   0.000000  
4778             79.780000  1.499421   0.000000   0.000000   0.000000  
4779             69.350000  1.811859   0.000000   0.000000   0.000000  
4780             86.050000  2.738510   0.000000   0.000000   0.000000  
4781             68.550000  2.965098   0.000000   0.000000   0.000000  
4782             71.390000  2.121980   0.000000   0.000000   0.000000  
4783             72.180000  1.326071   0.000000   0.000000   0.000000  
4784             73.640000  2.143492   0.000000   0.000000   0.000000  
4785             76.860000  2.030913   0.000000   0.000000   0.000000  
4786             78.410000  2.001984   0.000000   0.000000   0.000000  
4787             77.350000  2.478375   0.000000   0.000000   0.000000  
4788             64.140000  2.749923   0.000000   0.000000   0.000000  
4789             66.340000  1.918305   0.000000   0.000000   0.000000  
4790             57.900000  1.911244   0.000000   0.000000   0.000000  
4791             58.780000  1.291932   0.000000   0.000000   0.000000  
4792             52.860000  2.666219   0.000000   0.000000   0.000000  
4793             52.100000  1.938319   0.000000   0.000000   0.000000  
4794             51.750000  1.928052   0.000000   0.000000   0.000000  
4795             51.650000  2.876834   0.000000   0.000000   0.000000  
4796             49.330000  5.160501   0.000000   0.000000   0.000000  
4799             34.250000  2.565850   0.000000   0.000000   0.000000  
4800             37.370000  3.734043   0.000000   0.000000   0.000000  
; Rim below invert (Manually fixed)
4801             30.750000  3.250000   0.000000   0.000000   0.000000  
4803             68.810000  2.761985   0.000000   0.000000   0.000000  
4804             73.670000  1.440083   0.000000   0.000000   0.000000  
4805             74.960000  1.842643   0.000000   0.000000   0.000000  
4810             176.520000 2.188345   0.000000   0.000000   0.000000  
4811             182.150000 2.395534   0.000000   0.000000   0.000000  
4812             188.120000 2.389430   0.000000   0.000000   0.000000  
4813             171.350000 1.948838   0.000000   0.000000   0.000000  
4814             158.100000 2.524159   0.000000   0.000000   0.000000  
4815             155.810000 2.724256   0.000000   0.000000   0.000000  
4816             144.980000 2.058910   0.000000   0.000000   0.000000  
4817             138.830000 2.184003   0.000000   0.000000   0.000000  
4818             136.120000 2.321450   0.000000   0.000000   0.000000  
48643            96.030000  12.369187  0.000000   0.000000   0.000000  
5127             125.250000 2.287770   0.000000   0.000000   0.000000  
5128             126.870000 1.932288   0.000000   0.000000   0.000000  
; Additional load from Strata Development
51523            3.870000   4.150757   0.000000   0.000000   0.000000  
5208             166.760000 4.209000   0.000000   0.000000   0.000000  
5209             156.990000 2.933000   0.000000   0.000000   0.000000  
52163            32.700000  2.878485   0.000000   0.000000   0.000000  
52165            33.270000  3.006000   0.000000   0.000000   0.000000  
52166            29.300000  4.584773   0.000000   0.000000   0.000000  
; Rim below invert (Manually fixed)
52167            29.000000  3.110379   0.000000   0.000000   0.000000  
52483            57.030000  4.295077   0.000000   0.000000   0.000000  
52484            58.050000  3.065051   0.000000   0.000000   0.000000  
5340             175.590000 4.040000   0.000000   0.000000   0.000000  
5344             169.890000 2.840000   0.000000   0.000000   0.000000  
53443            16.700000  1.450000   0.000000   0.000000   0.000000  
53444            17.000000  2.046968   0.000000   0.000000   0.000000  
53445            17.310000  2.506882   0.000000   0.000000   0.000000  
5345             159.120000 4.800000   0.000000   0.000000   0.000000  
5346             157.320000 3.320000   0.000000   0.000000   0.000000  
5347             163.500000 1.470000   0.000000   0.000000   0.000000  
5348             169.840000 1.810000   0.000000   0.000000   0.000000  
5350             175.800000 2.100000   0.000000   0.000000   0.000000  
5351             159.740000 0.652000   0.000000   0.000000   0.000000  
5352             160.300000 0.171000   0.000000   0.000000   0.000000  
5353             163.820000 0.854000   0.000000   0.000000   0.000000  
5361             177.080000 2.410000   0.000000   0.000000   0.000000  
5404             153.760000 2.008000   0.000000   0.000000   0.000000  
5450             149.150000 2.283494   0.000000   0.000000   0.000000  
5451             152.380000 4.337937   0.000000   0.000000   0.000000  
5452             160.250000 1.083969   0.000000   0.000000   0.000000  
5453             149.370000 3.662709   0.000000   0.000000   0.000000  
5454             132.140000 2.327747   0.000000   0.000000   0.000000  
5455             128.380000 2.153820   0.000000   0.000000   0.000000  
5456             125.990000 2.832058   0.000000   0.000000   0.000000  
5458             144.000000 2.997660   0.000000   0.000000   0.000000  
5459             83.380000  2.078861   0.000000   0.000000   0.000000  
5460             93.920000  2.020211   0.000000   0.000000   0.000000  
5461             84.500000  2.272883   0.000000   0.000000   0.000000  
5462             87.100000  3.201411   0.000000   0.000000   0.000000  
5463             91.720000  1.478982   0.000000   0.000000   0.000000  
5464             74.880000  3.210155   0.000000   0.000000   0.000000  
5465             111.080000 1.800064   0.000000   0.000000   0.000000  
5466             102.600000 1.627511   0.000000   0.000000   0.000000  
5467             100.030000 2.355341   0.000000   0.000000   0.000000  