[OPTIONS]
;Option and Files Scenario Set: BASE
FLOW_UNITS		CFS
INFILTRATION		HORTON
FLOW_ROUTING		DYNWAVE
LINK_OFFSETS		DEPTH
MIN_SLOPE		0.000000
ALLOW_PONDING		NO
SKIP_STEADY_STATE 	NO
IGNORE_RAINFALL		NO
IGNORE_SNOWMELT		NO
IGNORE_GROUNDWATER	NO
IGNORE_QUALITY		NO

START_DATE		01/01/2002
START_TIME		00:00:00
REPORT_START_DATE	01/01/2002
REPORT_START_TIME	00:00
END_DATE		01/01/2002
END_TIME		24:00:00
SWEEP_START		01/01
SWEEP_END		12/31
DRY_DAYS		5.000000
REPORT_STEP		00:05:00
WET_STEP		01:00:00
DRY_STEP		23:00:00
ROUTING_STEP		300

INERTIAL_DAMPING	NONE
NORMAL_FLOW_LIMITED	BOTH
FORCE_MAIN_EQUATION	H-W
VARIABLE_STEP		0.750000
LENGTHENING_STEP	0
MIN_SURFAREA		0.000000
MINIMUM_STEP		0.5


[FILES]

[RAINGAGES]

[HYDROGRAPHS]

[TEMPERATURE]

[ADJUSTMENTS]

[SUBCATCHMENTS]

[SUBAREAS]

[INFILTRATION]

[AQUIFERS]

[GROUNDWATER]

[GWF]

[SNOWPACKS]

[JUNCTIONS]
; New Manhole
20	1409.400000	11.870000	0.000000	0.000000	0.000000
; New Manhole
22	1415.910000	8.000000	0.000000	0.000000	0.000000
; New Manhole
24	1458.000000	8.000000	0.000000	0.000000	0.000000
; New Manhole
26	1450.670000	21.370000	0.000000	0.000000	0.000000
; New Manhole
28	1461.330000	14.680000	0.000000	0.000000	0.000000
; New Manhole
30	1472.150000	8.830000	0.000000	0.000000	0.000000
; New Manhole
32	1406.380000	21.590000	0.000000	0.000000	0.000000
; New Manhole
34	1412.240000	22.414000	0.000000	0.000000	0.000000
; New Manhole
36	1408.030000	8.000000	0.000000	0.000000	0.000000
; New Manhole
38	1442.110000	8.000000	0.000000	0.000000	0.000000
; New Manhole
622000	1444.000000	7.990000	0.000000	0.000000	0.000000
; New Manhole
622200	1436.380000	17.620000	0.000000	0.000000	0.000000
; New Manhole
622400	1456.020000	8.000000	0.000000	0.000000	0.000000
; New Manhole
622600	1432.080000	8.000000	0.000000	0.000000	0.000000
; New Manhole
622800	1424.380000	19.440000	0.000000	0.000000	0.000000
; New Manhole
623600	1439.650000	14.850000	0.000000	0.000000	0.000000
; New Manhole
624200	1407.420000	22.770000	0.000000	0.000000	0.000000
; New Manhole
624400	1415.960000	21.980000	0.000000	0.000000	0.000000
; New Manhole
624600	1445.840000	8.000000	0.000000	0.000000	0.000000
; New Manhole
624800	1432.120000	13.790000	0.000000	0.000000	0.000000
; New Manhole
626200	1416.100000	22.360000	0.000000	0.000000	0.000000
; New Manhole
626400	1429.020000	10.980000	0.000000	0.000000	0.000000
; New Manhole
627000	1403.140000	12.890000	0.000000	0.000000	0.000000
; New Manhole
627200	1392.650000	17.430000	0.000000	0.000000	0.000000
; New Manhole
627400	1400.430000	13.154975	0.000000	0.000000	0.000000
; New Manhole
627800	1401.480000	12.530000	0.000000	0.000000	0.000000
; New Manhole
628000	1403.720000	22.310000	0.000000	0.000000	0.000000
; New Manhole
628200	1409.040000	24.000000	0.000000	0.000000	0.000000
; New Manhole
628400	1428.000000	8.000000	0.000000	0.000000	0.000000
; New Manhole
628600	1415.440000	22.020000	0.000000	0.000000	0.000000
; New Manhole
628800	1422.340000	19.600000	0.000000	0.000000	0.000000
; New Manhole
629000	1440.000000	8.000000	0.000000	0.000000	0.000000
; New Manhole
629200	1440.410000	11.590000	0.000000	0.000000	0.000000
; New Manhole
629400	1429.240000	9.880000	0.000000	0.000000	0.000000
; New Manhole
630000	1440.030000	14.720000	0.000000	0.000000	0.000000
; New Manhole
630200	1425.810000	12.190000	0.000000	0.000000	0.000000
; New Manhole
631000	1399.370000	22.630000	0.000000	0.000000	0.000000
; New Manhole
637400	1562.338000	15.000000	0.000000	0.000000	0.000000
; New Manhole
637600	1539.277000	15.000000	0.000000	0.000000	0.000000
; New Manhole
637800	1594.952000	15.000000	0.000000	0.000000	0.000000
; New Manhole
638000	1547.377000	15.000000	0.000000	0.000000	0.000000
; New Manhole
638200	1496.291000	15.000000	0.000000	0.000000	0.000000
; New Manhole
638400	1572.869000	15.000000	0.000000	0.000000	0.000000
; New Manhole
638600	1643.597000	15.000000	0.000000	0.000000	0.000000
; New Manhole
638800	1511.035000	15.000000	0.000000	0.000000	0.000000
; New Manhole
639000	1447.863000	15.000000	0.000000	0.000000	0.000000
; New Manhole
639400	1515.278000	15.000000	0.000000	0.000000	0.000000
; New Manhole
639600	1473.244000	15.000000	0.000000	0.000000	0.000000
; New Manhole
639800	1426.807000	15.000000	0.000000	0.000000	0.000000
; New Manhole
640000	1433.149000	15.000000	0.000000	0.000000	0.000000
; New Manhole
640200	1428.523000	15.000000	0.000000	0.000000	0.000000
; New Manhole
640400	1458.342000	15.000000	0.000000	0.000000	0.000000
; New Manhole
658400	1391.720000	17.780000	0.000000	0.000000	0.000000
; New Manhole
664200	1396.000000	18.050000	0.000000	0.000000	0.000000
; New Manhole
664400	1403.570000	7.695000	0.000000	0.000000	0.000000
; New Manhole
664800	1519.205000	15.000000	0.000000	0.000000	0.000000
; New Manhole
665000	1471.961000	15.000000	0.000000	0.000000	0.000000
; New Manhole
665400	1415.301000	6.000000	0.000000	0.000000	0.000000
; New Manhole
665600	1405.265000	6.000000	0.000000	0.000000	0.000000
; New Manhole
666600	1468.342000	4.948000	0.000000	0.000000	0.000000
; New Manhole
667200	1571.606000	15.000000	0.000000	0.000000	0.000000
; New Manhole
667400	1588.696000	15.000000	0.000000	0.000000	0.000000
; New Manhole
667600	1639.939000	15.000000	0.000000	0.000000	0.000000
; New Manhole
667800	1593.204000	15.000000	0.000000	0.000000	0.000000
; New Manhole
668000	1686.261000	15.000000	0.000000	0.000000	0.000000
; New Manhole
668200	1508.686000	15.000000	0.000000	0.000000	0.000000
; New Manhole
668600	1503.654000	15.000000	0.000000	0.000000	0.000000
; New Manhole
668800	1436.200000	6.000000	0.000000	0.000000	0.000000
; New Manhole
670200	1437.760000	8.000000	0.000000	0.000000	0.000000
; New Manhole
670400	1428.870000	8.000000	0.000000	0.000000	0.000000
; New Manhole
670600	1449.050000	14.950000	0.000000	0.000000	0.000000
; New Manhole
683200	1412.000000	8.000000	0.000000	0.000000	0.000000
; New Manhole
685600	1462.341000	15.000000	0.000000	0.000000	0.000000
; New Manhole
685800	1433.746000	15.000000	0.000000	0.000000	0.000000
; New Manhole
686000	1528.489000	15.000000	0.000000	0.000000	0.000000
; New Manhole
686200	1540.661000	15.000000	0.000000	0.000000	0.000000
; New Manhole
696600	1462.000000	8.010000	0.000000	0.000000	0.000000
; New Manhole
696800	1466.940000	8.000000	0.000000	0.000000	0.000000
; New Manhole
697000	1453.390000	8.000000	0.000000	0.000000	0.000000
; New Manhole
697200	1454.000000	8.000000	0.000000	0.000000	0.000000

[OUTFALLS]
; New Manhole
18	1391.530000	FREE	NO

[DIVIDERS]

[STORAGE]

[CONDUITS]
; New Pipe
332800	623600	622800	5192.245000	0.013000	0.000000	0.200000	0.000000	0.000000
; New Pipe
333000	622400	622200	4117.889000	0.013000	0.000000	0.000000	0.000000	0.000000
; New Pipe
333200	622000	622200	3709.257000	0.013000	0.000000	0.200000	0.000000	0.000000
; New Pipe
333400	622600	622800	3747.525000	0.013000	0.000000	0.200000	0.000000	0.000000
; New Pipe
333800	624600	624800	4573.945000	0.013000	0.000000	0.000000	0.000000	0.000000
; New Pipe
335200	624800	626200	5371.638000	0.013000	0.000000	0.000000	0.000000	0.000000
; New Pipe
335800	627000	627200	5295.013000	0.013000	0.000000	0.200000	0.000000	0.000000
; New Pipe
336200	664400	627400	5061.733000	0.013000	0.000000	0.100000	0.000000	0.000000
; New Pipe
336202	627200	658400	1165.574000	0.013000	0.000000	0.000000	0.000000	0.000000
; New Pipe
336204	658400	18	237.480000	0.013000	0.000000	0.000000	0.000000	0.000000
; New Pipe
336206	22	20	2654.118000	0.013000	0.000000	0.000000	0.000000	0.000000
; New Pipe
336208	20	627800	5317.099000	0.013000	0.000000	0.000000	0.000000	0.000000
; New Pipe
336210	627800	664200	5237.090000	0.013000	0.000000	0.000000	0.000000	0.000000
; New Pipe
336212	664200	627200	4188.535000	0.013000	0.000000	0.000000	0.000000	0.000000
; New Pipe
336216	631000	664200	5275.896000	0.013000	0.000000	0.200000	0.000000	0.000000
; New Pipe
336218	628000	631000	5186.856000	0.013000	0.000000	0.200000	0.000000	0.000000
; New Pipe
336222	32	628000	2661.427000	0.013000	0.000000	0.000000	0.000000	0.000000
; New Pipe
336224	628200	32	2656.926000	0.013000	0.000000	0.000000	0.000000	0.000000
; New Pipe
336226	34	628200	2669.299000	0.013000	0.000000	0.000000	0.000000	0.000000
; New Pipe
336228	628600	34	2669.733000	0.013000	0.000000	0.000000	0.000000	0.000000
; New Pipe
336230	629400	630200	2639.626000	0.013000	0.000000	0.000000	0.000000	0.000000
; New Pipe
336232	630200	628800	2666.156000	0.013000	0.000000	0.000000	0.000000	0.000000
; New Pipe
336234	628800	628600	5308.250000	0.013000	0.000000	0.000000	0.000000	0.000000
; New Pipe
336236	30	28	5310.146000	0.013000	0.000000	0.200000	0.000000	0.000000
; New Pipe
336238	28	26	5327.813000	0.013000	0.000000	0.000000	0.000000	0.000000
; New Pipe
336240	26	630000	5320.602000	0.013000	0.000000	0.000000	0.000000	0.000000
; New Pipe
336242	630000	629400	5295.933000	0.013000	0.000000	0.200000	0.000000	0.000000
; New Pipe
336244	696800	670600	5239.990000	0.013000	0.000000	0.000000	0.000000	0.000000
; New Pipe
336246	696600	670600	5311.657000	0.013000	0.000000	0.200000	0.000000	0.000000
; New Pipe
336248	670600	622200	5296.972000	0.013000	0.000000	0.200000	0.000000	0.000000
; New Pipe
336250	622200	622800	5371.160000	0.013000	0.000000	0.000000	0.000000	0.000000
; New Pipe
336252	622800	624400	5263.859000	0.013000	0.000000	0.000000	0.000000	0.000000
; New Pipe
336254	624400	624200	5335.473000	0.013000	0.000000	0.000000	0.000000	0.000000
; New Pipe
336256	624200	631000	5256.646000	0.013000	0.000000	0.000000	0.000000	0.000000
; New Pipe
336258	697200	623600	5346.128000	0.013000	0.000000	0.000000	0.000000	0.000000
; New Pipe
336260	697000	623600	4667.767000	0.013000	0.000000	0.200000	0.000000	0.000000
; New Pipe
336262	36	627000	2444.512000	0.013000	0.000000	0.000000	0.000000	0.000000
; New Pipe
336264	24	629200	5330.994000	0.013000	0.000000	0.000000	0.000000	0.000000
; New Pipe
336266	629200	628800	5308.985000	0.013000	0.000000	0.200000	0.000000	0.000000
; New Pipe
336268	629000	628600	5312.041000	0.013000	0.000000	0.200000	0.000000	0.000000
; New Pipe
336270	628400	628200	4679.008000	0.013000	0.000000	0.200000	0.000000	0.000000
; New Pipe
336272	626200	628000	5277.100000	0.013000	0.000000	0.200000	0.000000	0.000000
; New Pipe
336274	38	626400	5370.112000	0.013000	0.000000	0.200000	0.000000	0.000000
; New Pipe
337400	626400	626200	5299.545000	0.013000	0.000000	0.200000	0.000000	0.000000
; New Pipe
348000	637400	637600	2126.148240	0.013000	0.000000	0.000000	0.000000	0.000000
; New Pipe
348200	637800	638000	4626.188838	0.013000	0.000000	0.000000	0.000000	0.000000
; New Pipe
348400	637600	686000	3156.746426	0.013000	0.000000	0.000000	0.000000	0.000000
; New Pipe
348600	638000	638200	5396.371092	0.013000	0.000000	0.000000	0.000000	0.000000
; New Pipe
348800	638600	638400	4558.858980	0.013000	0.000000	0.000000	0.000000	0.000000
; New Pipe
349000	638400	638800	5401.976438	0.013000	0.000000	0.000000	0.000000	0.000000
; New Pipe
349200	638200	639000	8814.714501	0.013000	0.000000	0.000000	0.000000	0.000000
; New Pipe
349400	638800	685600	5224.336079	0.013000	0.000000	0.000000	0.000000	0.000000
; New Pipe
349800	639400	639600	4691.619211	0.013000	0.000000	0.000000	0.000000	0.000000
; New Pipe
350000	639000	639800	3949.649631	0.013000	0.000000	0.000000	0.000000	0.000000
; New Pipe
350200	639800	627400	6628.966000	0.013000	0.000000	0.100000	0.000000	0.000000
; New Pipe
350400	639600	640000	5448.317033	0.013000	0.000000	0.000000	0.000000	0.000000
; New Pipe
350600	640400	640200	3404.101132	0.013000	0.000000	0.000000	0.000000	0.000000
; New Pipe
376400	640200	664400	5533.593000	0.013000	0.000000	0.160000	0.000000	0.000000
; New Pipe
376600	640000	627400	5487.728000	0.013000	0.000000	0.100000	0.000000	0.000000
; New Pipe
376800	664800	638800	4728.258689	0.013000	0.000000	0.000000	0.000000	0.000000
; New Pipe
377000	665000	685600	4724.178771	0.013000	0.000000	0.000000	0.000000	0.000000
; New Pipe
378800	666600	640400	4059.944965	0.013000	0.000000	0.000000	0.000000	0.000000
; New Pipe
379600	667200	638000	4660.853685	0.013000	0.000000	0.000000	0.000000	0.000000
; New Pipe
379800	667400	637400	4623.069520	0.013000	0.000000	0.000000	0.000000	0.000000
; New Pipe
380000	667600	637800	4656.812762	0.013000	0.000000	0.000000	0.000000	0.000000
; New Pipe
380200	668000	638600	4791.785855	0.013000	0.000000	0.000000	0.000000	0.000000
; New Pipe
380400	667800	638400	4124.890827	0.013000	0.000000	0.000000	0.000000	0.000000
; New Pipe
380600	668200	638200	4555.583077	0.013000	0.000000	0.000000	0.000000	0.000000
; New Pipe
381000	668600	639600	4601.503718	0.013000	0.000000	0.000000	0.000000	0.000000
; New Pipe
381200	668800	665400	3856.928606	0.013000	0.000000	0.000000	0.000000	0.000000
; New Pipe
381600	665400	665600	5646.704000	0.013000	0.000000	0.000000	0.000000	0.000000
; New Pipe
382600	670400	624200	4686.190000	0.013000	0.000000	0.200000	0.000000	0.000000
; New Pipe
382800	670200	624400	4495.097000	0.013000	0.000000	0.200000	0.000000	0.000000
; New Pipe
395000	683200	627000	3481.957000	0.013000	0.000000	0.200000	0.000000	0.000000
; New Pipe
397000	665600	664400	4734.218000	0.013000	0.000000	0.260000	0.000000	0.000000
; New Pipe
402200	627400	627200	5345.826000	0.013000	0.000000	4.570000	0.000000	0.000000
; New Pipe
402400	685600	639000	1889.671508	0.013000	0.000000	0.000000	0.000000	0.000000
; New Pipe
402600	685800	640200	4318.683190	0.013000	0.000000	0.000000	0.000000	0.000000
; New Pipe
402800	686000	638200	6427.025152	0.013000	0.000000	0.000000	0.000000	0.000000
; New Pipe
403000	686200	686000	2649.738337	0.013000	0.000000	0.000000	0.000000	0.000000

[PUMPS]

[ORIFICES]

[WEIRS]

[XSECTIONS]
332800	CIRCULAR	1.000000	0.000000	0.000000	0.000000	1	0
333000	CIRCULAR	1.000000	0.000000	0.000000	0.000000	1	0
333200	CIRCULAR	1.000000	0.000000	0.000000	0.000000	1	0
333400	CIRCULAR	1.500000	0.000000	0.000000	0.000000	1	0
333800	CIRCULAR	1.000000	0.000000	0.000000	0.000000	1	0
335200	CIRCULAR	1.000000	0.000000	0.000000	0.000000	1	0
335800	CIRCULAR	1.250000	0.000000	0.000000	0.000000	1	0
336200	CIRCULAR	2.500000	0.000000	0.000000	0.000000	1	0
336202	CIRCULAR	5.000000	0.000000	0.000000	0.000000	1	0
336204	CIRCULAR	5.000000	0.000000	0.000000	0.000000	1	0
336206	CIRCULAR	1.000000	0.000000	0.000000	0.000000	1	0
336208	CIRCULAR	1.250000	0.000000	0.000000	0.000000	1	0
336210	CIRCULAR	2.000000	0.000000	0.000000	0.000000	1	0
336212	CIRCULAR	4.500000	0.000000	0.000000	0.000000	1	0
336216	CIRCULAR	4.500000	0.000000	0.000000	0.000000	1	0
336218	CIRCULAR	3.500000	0.000000	0.000000	0.000000	1	0
336222	CIRCULAR	3.000000	0.000000	0.000000	0.000000	1	0
336224	CIRCULAR	2.500000	0.000000	0.000000	0.000000	1	0
336226	CIRCULAR	1.750000	0.000000	0.000000	0.000000	1	0
336228	CIRCULAR	1.750000	0.000000	0.000000	0.000000	1	0
336230	CIRCULAR	1.500000	0.000000	0.000000	0.000000	1	0
336232	CIRCULAR	1.500000	0.000000	0.000000	0.000000	1	0
336234	CIRCULAR	1.500000	0.000000	0.000000	0.000000	1	0
336236	CIRCULAR	1.000000	0.000000	0.000000	0.000000	1	0
336238	CIRCULAR	1.000000	0.000000	0.000000	0.000000	1	0
336240	CIRCULAR	1.000000	0.000000	0.000000	0.000000	1	0
336242	CIRCULAR	1.000000	0.000000	0.000000	0.000000	1	0
336244	CIRCULAR	1.000000	0.000000	0.000000	0.000000	1	0
336246	CIRCULAR	1.000000	0.000000	0.000000	0.000000	1	0
336248	CIRCULAR	1.000000	0.000000	0.000000	0.000000	1	0
336250	CIRCULAR	1.500000	0.000000	0.000000	0.000000	1	0
336252	CIRCULAR	2.250000	0.000000	0.000000	0.000000	1	0
336254	CIRCULAR	2.500000	0.000000	0.000000	0.000000	1	0
336256	CIRCULAR	2.500000	0.000000	0.000000	0.000000	1	0
336258	CIRCULAR	1.000000	0.000000	0.000000	0.000000	1	0
336260	CIRCULAR	1.000000	0.000000	0.000000	0.000000	1	0
336262	CIRCULAR	1.000000	0.000000	0.000000	0.000000	1	0
336264	CIRCULAR	1.000000	0.000000	0.000000	0.000000	1	0
336266	CIRCULAR	1.000000	0.000000	0.000000	0.000000	1	0
336268	CIRCULAR	1.000000	0.000000	0.000000	0.000000	1	0
336270	CIRCULAR	1.000000	0.000000	0.000000	0.000000	1	0
336272	CIRCULAR	2.000000	0.000000	0.000000	0.000000	1	0
336274	CIRCULAR	1.250000	0.000000	0.000000	0.000000	1	0
337400	CIRCULAR	1.500000	0.000000	0.000000	0.000000	1	0
348000	CIRCULAR	0.666667	0.000000	0.000000	0.000000	1	0
348200	CIRCULAR	0.666667	0.000000	0.000000	0.000000	1	0
348400	CIRCULAR	0.666667	0.000000	0.000000	0.000000	1	0
348600	CIRCULAR	1.000000	0.000000	0.000000	0.000000	1	0
348800	CIRCULAR	0.666667	0.000000	0.000000	0.000000	1	0
349000	CIRCULAR	1.000000	0.000000	0.000000	0.000000	1	0
349200	CIRCULAR	1.250000	0.000000	0.000000	0.000000	1	0
349400	CIRCULAR	1.250000	0.000000	0.000000	0.000000	1	0
349800	CIRCULAR	0.666667	0.000000	0.000000	0.000000	1	0
350000	CIRCULAR	1.500000	0.000000	0.000000	0.000000	1	0
350200	CIRCULAR	1.750000	0.000000	0.000000	0.000000	1	0
350400	CIRCULAR	1.000000	0.000000	0.000000	0.000000	1	0
350600	CIRCULAR	0.833333	0.000000	0.000000	0.000000	1	0
376400	CIRCULAR	1.250000	0.000000	0.000000	0.000000	1	0
376600	CIRCULAR	1.250000	0.000000	0.000000	0.000000	1	0
376800	CIRCULAR	1.250000	0.000000	0.000000	0.000000	1	0
377000	CIRCULAR	1.250000	0.000000	0.000000	0.000000	1	0
378800	CIRCULAR	0.833333	0.000000	0.000000	0.000000	1	0
379600	CIRCULAR	1.000000	0.000000	0.000000	0.000000	1	0
379800	CIRCULAR	0.666667	0.000000	0.000000	0.000000	1	0
380000	CIRCULAR	0.666667	0.000000	0.000000	0.000000	1	0
380200	CIRCULAR	0.666667	0.000000	0.000000	0.000000	1	0
380400	CIRCULAR	1.000000	0.000000	0.000000	0.000000	1	0
380600	CIRCULAR	1.000000	0.000000	0.000000	0.000000	1	0
381000	CIRCULAR	0.833333	0.000000	0.000000	0.000000	1	0
381200	CIRCULAR	0.833333	0.000000	0.000000	0.000000	1	0
381600	CIRCULAR	1.250000	0.000000	0.000000	0.000000	1	0
382600	CIRCULAR	1.000000	0.000000	0.000000	0.000000	1	0
382800	CIRCULAR	1.000000	0.000000	0.000000	0.000000	1	0
395000	CIRCULAR	1.000000	0.000000	0.000000	0.000000	1	0
397000	CIRCULAR	1.250000	0.000000	0.000000	0.000000	1	0
402200	CIRCULAR	2.500000	0.000000	0.000000	0.000000	1	0
402400	CIRCULAR	1.250000	0.000000	0.000000	0.000000	1	0
402600	CIRCULAR	1.250000	0.000000	0.000000	0.000000	1	0
402800	CIRCULAR	0.833333	0.000000	0.000000	0.000000	1	0
403000	CIRCULAR	0.666667	0.000000	0.000000	0.000000	1	0

[TRANSECTS]

[LOSSES]
332800	0.000000	0.000000	0.000000	NO	0.000000
333000	0.000000	0.000000	0.000000	NO	0.000000
333200	0.000000	0.000000	0.000000	NO	0.000000
333400	0.000000	0.000000	0.000000	NO	0.000000
333800	0.000000	0.000000	0.000000	NO	0.000000
335200	0.000000	0.000000	0.000000	NO	0.000000
335800	0.000000	0.000000	0.000000	NO	0.000000
336200	0.000000	0.000000	0.000000	NO	0.000000
336202	0.000000	0.000000	0.000000	NO	0.000000
336204	0.000000	0.000000	0.000000	NO	0.000000
336206	0.000000	0.000000	0.000000	NO	0.000000
336208	0.000000	0.000000	0.000000	NO	0.000000
336210	0.000000	0.000000	0.000000	NO	0.000000
336212	0.000000	0.000000	0.000000	NO	0.000000
336216	0.000000	0.000000	0.000000	NO	0.000000
336218	0.000000	0.000000	0.000000	NO	0.000000
336222	0.000000	0.000000	0.000000	NO	0.000000
336224	0.000000	0.000000	0.000000	NO	0.000000
336226	0.000000	0.000000	0.000000	NO	0.000000
336228	0.000000	0.000000	0.000000	NO	0.000000
336230	0.000000	0.000000	0.000000	NO	0.000000
336232	0.000000	0.000000	0.000000	NO	0.000000
336234	0.000000	0.000000	0.000000	NO	0.000000
336236	0.000000	0.000000	0.000000	NO	0.000000
336238	0.000000	0.000000	0.000000	NO	0.000000
336240	0.000000	0.000000	0.000000	NO	0.000000
336242	0.000000	0.000000	0.000000	NO	0.000000
336244	0.000000	0.000000	0.000000	NO	0.000000
336246	0.000000	0.000000	0.000000	NO	0.000000
336248	0.000000	0.000000	0.000000	NO	0.000000
336250	0.000000	0.000000	0.000000	NO	0.000000
336252	0.000000	0.000000	0.000000	NO	0.000000
336254	0.000000	0.000000	0.000000	NO	0.000000
336256	0.000000	0.000000	0.000000	NO	0.000000
336258	0.000000	0.000000	0.000000	NO	0.000000
336260	0.000000	0.000000	0.000000	NO	0.000000
336262	0.000000	0.000000	0.000000	NO	0.000000
336264	0.000000	0.000000	0.000000	NO	0.000000
336266	0.000000	0.000000	0.000000	NO	0.000000
336268	0.000000	0.000000	0.000000	NO	0.000000
336270	0.000000	0.000000	0.000000	NO	0.000000
336272	0.000000	0.000000	0.000000	NO	0.000000
336274	0.000000	0.000000	0.000000	NO	0.000000
337400	0.000000	0.000000	0.000000	NO	0.000000
348000	0.000000	0.000000	0.000000	NO	0.000000
348200	0.000000	0.000000	0.000000	NO	0.000000
348400	0.000000	0.000000	0.000000	NO	0.000000
348600	0.000000	0.000000	0.000000	NO	0.000000
348800	0.000000	0.000000	0.000000	NO	0.000000
349000	0.000000	0.000000	0.000000	NO	0.000000
349200	0.000000	0.000000	0.000000	NO	0.000000
349400	0.000000	0.000000	0.000000	NO	0.000000
349800	0.000000	0.000000	0.000000	NO	0.000000
350000	0.000000	0.000000	0.000000	NO	0.000000
350200	0.000000	0.000000	0.000000	NO	0.000000
350400	0.000000	0.000000	0.000000	NO	0.000000
350600	0.000000	0.000000	0.000000	NO	0.000000
376400	0.000000	0.000000	0.000000	NO	0.000000
376600	0.000000	0.000000	0.000000	NO	0.000000
376800	0.000000	0.000000	0.000000	NO	0.000000
377000	0.000000	0.000000	0.000000	NO	0.000000
378800	0.000000	0.000000	0.000000	NO	0.000000
379600	0.000000	0.000000	0.000000	NO	0.000000
379800	0.000000	0.000000	0.000000	NO	0.000000
380000	0.000000	0.000000	0.000000	NO	0.000000
380200	0.000000	0.000000	0.000000	NO	0.000000
380400	0.000000	0.000000	0.000000	NO	0.000000
380600	0.000000	0.000000	0.000000	NO	0.000000
381000	0.000000	0.000000	0.000000	NO	0.000000
381200	0.000000	0.000000	0.000000	NO	0.000000
381600	0.000000	0.000000	0.000000	NO	0.000000
382600	0.000000	0.000000	0.000000	NO	0.000000
382800	0.000000	0.000000	0.000000	NO	0.000000
395000	0.000000	0.000000	0.000000	NO	0.000000
397000	0.000000	0.000000	0.000000	NO	0.000000
402200	0.000000	0.000000	0.000000	NO	0.000000
402400	0.000000	0.000000	0.000000	NO	0.000000
402600	0.000000	0.000000	0.000000	NO	0.000000
402800	0.000000	0.000000	0.000000	NO	0.000000
403000	0.000000	0.000000	0.000000	NO	0.000000

[CONTROLS]

[POLLUTANTS]

[LANDUSES]

[COVERAGES]

[BUILDUP]

[WASHOFF]

[TREATMENT]

[INFLOWS]

[DWF]
20	FLOW	0.485143	""	""	""	""
22	FLOW	0.313419	""	""	""	""
24	FLOW	0.213000	""	""	""	""
26	FLOW	0.107000	""	""	""	""
28	FLOW	0.107000	""	""	""	""
32	FLOW	5.111000	""	""	""	""
34	FLOW	0.230000	""	""	""	""
36	FLOW	0.434000	""	""	""	""
38	FLOW	1.032000	""	""	""	""
622000	FLOW	0.405993	""	""	""	""
622200	FLOW	0.225751	""	""	""	""
622400	FLOW	0.317557	""	""	""	""
622600	FLOW	2.102150	""	""	""	""
622800	FLOW	1.433293	""	""	""	""
623600	FLOW	0.279531	""	""	""	""
624200	FLOW	0.786881	""	""	""	""
624400	FLOW	0.963561	""	""	""	""
624600	FLOW	0.341058	""	""	""	""
624800	FLOW	0.483190	""	""	""	""
626200	FLOW	1.196910	""	""	""	""
626400	FLOW	0.743700	""	""	""	""
627200	FLOW	2.128886	""	""	""	""
627800	FLOW	2.646063	""	""	""	""
628000	FLOW	1.118621	""	""	""	""
628200	FLOW	1.703860	""	""	""	""
628400	FLOW	0.234350	""	""	""	""
628600	FLOW	0.968123	""	""	""	""
628800	FLOW	0.053000	""	""	""	""
629000	FLOW	0.115519	""	""	""	""
629200	FLOW	0.053000	""	""	""	""
629400	FLOW	0.053000	""	""	""	""
630000	FLOW	0.053000	""	""	""	""
630200	FLOW	0.053000	""	""	""	""
631000	FLOW	1.250454	""	""	""	""
664200	FLOW	2.098640	""	""	""	""
670200	FLOW	0.936079	""	""	""	""
670400	FLOW	0.625722	""	""	""	""
670600	FLOW	0.459591	""	""	""	""
683200	FLOW	0.608097	""	""	""	""
696600	FLOW	0.163649	""	""	""	""
696800	FLOW	0.158647	""	""	""	""
697000	FLOW	0.161337	""	""	""	""
697200	FLOW	0.361867	""	""	""	""

[RDII]

[LOADINGS]

[CURVES]

[TIMESERIES]

[PATTERNS]

[REPORT]
;Report Option Set: BASE, Base Simulation Report
INPUT NO
CONTINUITY YES
FLOWSTATS YES
CONTROLS NO
AVERAGES NO
SUBCATCHMENTS  ALL
NODES  ALL
LINKS  ALL

[COORDINATES]
18	769971.943446	694442.451052
20	786116.505400	694498.572800
22	788770.621700	694501.487100
24	796619.407900	678571.261200
26	801934.950800	678572.274100
28	801901.456700	673244.566500
30	807211.572300	673262.571400
32	783386.215300	689182.885200
34	788712.437300	689186.759400
36	771374.624600	686671.559300
38	785966.391900	678536.168600
622000	771717.467200	667897.923400
622200	775426.723700	667899.894400
622400	775426.723700	663782.004900
622600	771679.373600	673307.217700
622800	775426.723700	673271.054600
623600	780618.845300	673235.246900
624200	775498.339200	683870.144100
624400	775462.531500	678534.791600
624600	780662.707500	673960.853500
624800	780654.653000	678534.791600
626200	780726.268500	683905.951800
626400	786025.813200	683905.951800
627000	771374.624600	689116.070800
627200	771374.624600	694411.084200
627400	770489.252100	699630.854200
627800	780799.407500	694495.860100
628000	780724.788700	689183.051200
628200	786043.141700	689182.529300
628400	786052.439200	684503.530100
628600	791382.166100	689191.479700
628800	796690.380200	689210.986700
629000	791336.950100	683879.631500
629200	796645.526900	683902.190800
629400	801996.115100	689188.609700
630000	801954.674900	683892.839100
630200	799356.513600	689199.995900
631000	775538.239400	689126.639000
637400	754359.556000	725748.814000
637600	754325.811900	723622.933600
637800	759556.152600	725681.325700
638000	759588.614900	721055.250800
638200	759657.385000	715659.317900
638400	764870.064700	721055.250800
638600	764820.237600	725613.837500
638800	764849.983100	715653.311700
639000	764853.981700	708539.305600
639400	770481.159500	715258.419700
639600	770502.779600	710566.850300
639800	767013.606300	705232.380500
640000	770481.159500	705118.576200
640200	775513.290500	705130.575300
640400	775522.217400	708534.664700
658400	770209.412073	694440.121719
664200	775563.150600	694402.476100
664400	775550.872200	699597.110100
664800	769578.160500	715625.573800
665000	769578.160500	710428.977100
665400	780285.089600	705244.845800
665600	780285.089600	699598.141700
666600	778075.509700	710498.735700
667200	764249.449500	721041.893800
667400	758982.502400	725715.069900
667600	764212.843100	725647.581600
667800	768994.925300	721071.029600
668000	769611.904600	725580.093300
668200	764212.843100	715625.573800
668600	775104.224800	710543.648800
668800	776428.219700	705266.124600
670200	779957.588400	678553.662300
670400	780184.502000	683886.131700
670600	780723.692800	667905.836300
683200	774856.580400	689112.666700
685600	764853.981700	710428.977100
685800	771194.623900	705118.576200
686000	756106.084500	721016.081500
686200	758755.822800	721016.081500
696600	780748.990800	662594.240000
696800	785963.663700	667920.039400
697000	780715.102800	668568.472600
697200	785964.962200	673224.228900


[POLYGONS]

[VERTICES]


[SYMBOLS]

[MAP]
DIMENSIONS	751681.523880	659436.511300	809855.860320	728906.542700

