[TITLE]
;;Project Title/Notes

[OPTIONS]
;;Option             Value
FLOW_UNITS           CFS
INFILTRATION         HORTON
FLOW_ROUTING         DYNWAVE
LINK_OFFSETS         DEPTH
MIN_SLOPE            0
ALLOW_PONDING        YES
SKIP_STEADY_STATE    NO

IGNORE_SNOWMELT      YES
IGNORE_QUALITY       YES
START_DATE           01/01/2002
START_TIME           00:00:00
REPORT_START_DATE    01/01/2002
REPORT_START_TIME    00:00:00
END_DATE             01/04/2002
END_TIME             06:00:00
SWEEP_START          01/01
SWEEP_END            12/31
DRY_DAYS             5.000000
REPORT_STEP          00:05:00
WET_STEP             00:05:00
DRY_STEP             01:00:00
ROUTING_STEP         0:00:10 

INERTIAL_DAMPING     PARTIAL
NORMAL_FLOW_LIMITED  SLOPE
FORCE_MAIN_EQUATION  H-W
VARIABLE_STEP        0.75
LENGTHENING_STEP     10
MIN_SURFAREA         12.557
MAX_TRIALS           8
HEAD_TOLERANCE       0.000100
SYS_FLOW_TOL         5
LAT_FLOW_TOL         5
MINIMUM_STEP         0
THREADS              1

[EVAPORATION]
;;Data Source    Parameters
;;-------------- ----------------
CONSTANT         0.0
DRY_ONLY         NO

[RAINGAGES]
;;Name           Format    Interval SCF      Source    
;;-------------- --------- ------ ------ ----------
; MEANANNUAL
MEANANNUAL       CUMULATIVE 0.250000 1.000000 TIMESERIES MEANANNUAL      
; 100YR72HRSTORM
RAINGAUGE_100YR  CUMULATIVE 0.250000 1.000000 TIMESERIES 100YR72HRSTORM  
; 10YR72HRSTORM
RAINGAUGE_10YR   CUMULATIVE 0.250000 1.000000 TIMESERIES 10YR72HRSTORM   
; 25YR72HR
RAINGAUGE_25YR   CUMULATIVE 0.250000 1.000000 TIMESERIES 25YR72HR        
; 5YR72HRSTORM
RAINGAUGE_5YR    CUMULATIVE 0.250000 1.000000 TIMESERIES 5YR72HRSTORM    

[SUBCATCHMENTS]
;;Name           Rain Gage        Outlet           Area     %Imperv  Width    %Slope   CurbLen  SnowPack        
;;-------------- ---------------- ---------------- -------- -------- -------- -------- -------- ----------------
; New Subcatchment
SUB-11856        RAINGAUGE_10YR   J-541            1.857639 45.471043 0.817771 1.664540 0.000000                 
; New Subcatchment
SUB-11868        RAINGAUGE_10YR   J-534            2.452711 65.000000 0.939668 2.119008 0.000000                 
; New Subcatchment
SUB-11924        RAINGAUGE_10YR   J-132            2.840024 38.000000 1.011142 1.152244 0.000000                 
; New Subcatchment
SUB-11926        RAINGAUGE_10YR   J-158            6.847408 38.000000 1.570053 0.518197 0.000000                 
; New Subcatchment
SUB-11930        RAINGAUGE_10YR   J-74             2.016822 38.000000 0.852089 0.893295 0.000000                 
; New Subcatchment
SUB-11932        RAINGAUGE_10YR   J-481            1.503526 20.363015 0.735710 0.561716 0.000000                 
; New Subcatchment
SUB-11936        RAINGAUGE_10YR   J-482            1.450452 54.966769 0.722608 0.503895 0.000000                 
; New Subcatchment
SUB-11944        RAINGAUGE_10YR   J-129            3.602990 38.015839 1.138893 1.828677 0.000000                 
; New Subcatchment
SUB-11948        RAINGAUGE_10YR   J-99             3.308419 38.000000 1.091344 1.060137 0.000000                 
; New Subcatchment
SUB-11950        RAINGAUGE_10YR   J-487            1.480570 50.433653 0.730072 0.837230 0.000000                 
; New Subcatchment
SUB-11954        RAINGAUGE_10YR   J-67             1.508301 38.000000 0.736877 1.773706 0.000000                 
; New Subcatchment
SUB-11958        RAINGAUGE_10YR   J-63             3.728697 38.000000 1.158590 0.739077 0.000000                 
; New Subcatchment
SUB-11968        RAINGAUGE_10YR   J-355            2.274664 19.513439 0.904919 0.978853 0.000000                 
; New Subcatchment
SUB-11970        RAINGAUGE_10YR   J-489            1.914806 45.144165 0.830259 0.885184 0.000000                 
; New Subcatchment
SUB-11972        RAINGAUGE_10YR   J-188            2.880840 38.000000 1.018382 1.381654 0.000000                 
; New Subcatchment
SUB-11978        RAINGAUGE_10YR   J-256            2.698432 38.026061 0.985614 1.736567 0.000000                 
; New Subcatchment
SUB-11984        RAINGAUGE_10YR   J-351            2.310935 38.096335 0.912106 0.714544 0.000000                 
; New Subcatchment
SUB-11986        RAINGAUGE_10YR   J-354            2.354276 40.458490 0.920619 0.605257 0.000000                 
; New Subcatchment
SUB-11988        RAINGAUGE_10YR   J-341            4.418571 39.193636 1.261224 1.319807 0.000000                 
; New Subcatchment
SUB-11990        RAINGAUGE_10YR   J-191            1.916642 38.078072 0.830657 1.567722 0.000000                 
; New Subcatchment
SUB-11994        RAINGAUGE_10YR   J-253            1.782763 38.000000 0.801121 2.181504 0.000000                 
; New Subcatchment
SUB-11998        RAINGAUGE_10YR   J-198            4.234923 38.072068 1.234736 0.809575 0.000000                 
; New Subcatchment
SUB-12004        RAINGAUGE_10YR   J-266            1.653328 38.000000 0.771491 1.670416 0.000000                 
; New Subcatchment
SUB-12010        RAINGAUGE_10YR   J-238            1.460504 38.000000 0.725108 1.471121 0.000000                 
; New Subcatchment
SUB-12014        RAINGAUGE_10YR   JCT-20           0.997760 65.000000 0.599327 0.955973 0.000000                 
; New Subcatchment
SUB-12016        RAINGAUGE_10YR   J-249            2.737824 38.001405 0.992782 1.580357 0.000000                 
; New Subcatchment
SUB-12024        RAINGAUGE_10YR   J-282            2.097903 38.651735 0.869048 0.734381 0.000000                 
; New Subcatchment
SUB-12036        RAINGAUGE_10YR   J-324            2.270348 39.038863 0.904061 1.047766 0.000000                 
; New Subcatchment
SUB-12044        RAINGAUGE_10YR   J-784            2.270165 65.024048 0.904024 2.158897 0.000000                 
; New Subcatchment
SUB-12046        RAINGAUGE_10YR   J-59             2.174025 38.000000 0.884675 0.921312 0.000000                 
; New Subcatchment
SUB-12048        RAINGAUGE_10YR   J-61             1.245684 43.249873 0.669661 2.196722 0.000000                 
; New Subcatchment
SUB-12052        RAINGAUGE_10YR   J-918            3.119261 38.132534 1.059686 2.730367 0.000000                 
; New Subcatchment
SUB-12060        RAINGAUGE_10YR   J-31             2.070080 38.000000 0.863266 0.667673 0.000000                 
; New Subcatchment
SUB-12062        RAINGAUGE_10YR   J-647            1.407203 38.000000 0.711753 0.311008 0.000000                 
; New Subcatchment
SUB-12068        RAINGAUGE_10YR   J-42             1.338427 38.400879 0.694142 0.957809 0.000000                 
; New Subcatchment
SUB-12072        RAINGAUGE_10YR   J-571            6.418130 38.000000 1.520042 0.909643 0.000000                 
; New Subcatchment
SUB-12084        RAINGAUGE_10YR   J-585            3.999486 38.009451 1.199923 1.418623 0.000000                 
; New Subcatchment
SUB-12086        RAINGAUGE_10YR   J-5              4.323441 38.000000 1.247573 1.912178 0.000000                 
; New Subcatchment
SUB-12088        RAINGAUGE_10YR   J-572            3.501892 38.000000 1.122801 1.234957 0.000000                 
; New Subcatchment
SUB-12100        RAINGAUGE_10YR   JCT-30           3.477099 38.016053 1.118819 0.500000 0.000000                 
; New Subcatchment
SUB-12110        RAINGAUGE_10YR   J-557            1.480478 38.032114 0.730049 0.500000 0.000000                 
; New Subcatchment
SUB-12112        RAINGAUGE_10YR   J-672            2.630023 38.006493 0.973041 0.500000 0.000000                 
; New Subcatchment
SUB-12116        RAINGAUGE_10YR   J-910            2.378058 38.000003 0.925257 0.500000 0.000000                 
; New Subcatchment
SUB-12122        RAINGAUGE_10YR   SUB-12122        0.194667 38.000000 0.264726 0.500000 0.000000                 
; New Subcatchment
SUB-12128        RAINGAUGE_10YR   J-606            1.786895 38.000000 0.802049 0.500000 0.000000                 
; New Subcatchment
SUB-12132        RAINGAUGE_10YR   J-710            3.058933 38.000000 1.049388 0.500000 0.000000                 
; New Subcatchment
SUB-12136        RAINGAUGE_10YR   J-700            2.479156 38.000000 0.944720 0.500000 0.000000                 
; New Subcatchment
SUB-12138        RAINGAUGE_10YR   JCT-32           1.972747 38.000000 0.842727 0.500000 0.000000                 
; New Subcatchment
SUB-12142        RAINGAUGE_10YR   J-912            5.105139 38.007495 1.355673 0.500000 0.000000                 
; New Subcatchment
SUB-12144        RAINGAUGE_10YR   J-611            5.940737 38.000000 1.462418 0.500000 0.000000                 
; New Subcatchment
SUB-12150        RAINGAUGE_10YR   J-563            2.175658 38.000000 0.885007 1.145574 0.000000                 
; New Subcatchment
SUB-12152        RAINGAUGE_10YR   J-678            3.515134 38.000000 1.124922 0.923680 0.000000                 
; New Subcatchment
SUB-12154        RAINGAUGE_10YR   J-663            5.908253 38.000000 1.458414 1.137961 0.000000                 
; New Subcatchment
SUB-12158        RAINGAUGE_10YR   J-665            1.852523 38.000000 0.816645 0.994650 0.000000                 
; New Subcatchment
SUB-12160        RAINGAUGE_10YR   J-598            3.733230 38.000000 1.159294 2.544498 0.000000                 
; New Subcatchment
SUB-12162        RAINGAUGE_10YR   J-591            2.779212 38.000000 1.000258 1.701853 0.000000                 
; New Subcatchment
SUB-12164        RAINGAUGE_10YR   J-757            2.215353 38.000000 0.893044 1.070446 0.000000                 
; New Subcatchment
SUB-12166        RAINGAUGE_10YR   J-687            1.491838 38.000000 0.732845 0.416854 0.000000                 
; New Subcatchment
SUB-12168        RAINGAUGE_10YR   J-633            2.097420 38.000000 0.868948 0.823507 0.000000                 
; New Subcatchment
SUB-12170        RAINGAUGE_10YR   J-659            0.589539 38.000000 0.460689 3.060475 0.000000                 
; New Subcatchment
SUB-12172        RAINGAUGE_10YR   J-657            1.125302 38.000000 0.636482 1.689521 0.000000                 
; New Subcatchment
SUB-12174        RAINGAUGE_10YR   J-654            2.624617 38.000000 0.972040 1.468449 0.000000                 
; New Subcatchment
SUB-12176        RAINGAUGE_10YR   J-18             1.711487 38.000000 0.784943 1.035760 0.000000                 
; New Subcatchment
SUB-12180        RAINGAUGE_10YR   J-629            2.426744 38.000000 0.934681 1.136246 0.000000                 
; New Subcatchment
SUB-12182        RAINGAUGE_10YR   J-632            1.135079 38.000000 0.639241 0.500000 0.000000                 
; New Subcatchment
SUB-12184        RAINGAUGE_10YR   J-637            0.553583 38.000000 0.446419 0.500000 0.000000                 
; New Subcatchment
SUB-12186        RAINGAUGE_10YR   J-640            1.677265 38.000000 0.777056 0.500000 0.000000                 
; New Subcatchment
SUB-12188        RAINGAUGE_10YR   J-653            2.827579 38.000000 1.008924 0.500000 0.000000                 
; New Subcatchment
SUB-12190        RAINGAUGE_10YR   J-27             2.066789 38.000000 0.862580 0.500000 0.000000                 
; New Subcatchment
SUB-12192        RAINGAUGE_10YR   J-25             2.761651 38.000000 0.997093 0.500000 0.000000                 
; New Subcatchment
SUB-12194        RAINGAUGE_10YR   J-321            1.410330 38.000000 0.712544 0.903960 0.000000                 
; New Subcatchment
SUB-12196        RAINGAUGE_10YR   J-328            1.663156 38.000000 0.773781 0.412534 0.000000                 
; New Subcatchment
SUB-12198        RAINGAUGE_10YR   J-314            1.806598 38.000000 0.806458 0.761684 0.000000                 
; New Subcatchment
SUB-12200        RAINGAUGE_10YR   J-682            1.661088 38.000000 0.773299 0.500000 0.000000                 
; New Subcatchment
SUB-12202        RAINGAUGE_10YR   J-624            2.842330 38.000000 1.011553 0.500000 0.000000                 
; New Subcatchment
SUB-12204        RAINGAUGE_10YR   J-618            1.390916 38.000000 0.707623 0.500000 0.000000                 
; New Subcatchment
SUB-12206        RAINGAUGE_10YR   J-899            2.885799 38.576025 1.019258 0.500000 0.000000                 
; New Subcatchment
SUB-12208        RAINGAUGE_10YR   J-891            1.194728 40.258370 0.655822 0.500000 0.000000                 
; New Subcatchment
SUB-12210        RAINGAUGE_10YR   J-40             2.010444 38.000000 0.850741 0.500000 0.000000                 
; New Subcatchment
SUB-12212        RAINGAUGE_10YR   J-58             1.527995 41.971872 0.741673 0.500000 0.000000                 
; New Subcatchment
SUB-12214        RAINGAUGE_10YR   J-54             2.797872 39.443760 1.003610 0.500000 0.000000                 
; New Subcatchment
SUB-12216        RAINGAUGE_10YR   J-934            1.138570 49.716647 0.640223 0.500000 0.000000                 
; New Subcatchment
SUB-12218        RAINGAUGE_10YR   J-894            0.835929 48.842470 0.548575 0.500000 0.000000                 
; New Subcatchment
SUB-12222        RAINGAUGE_10YR   J-317            1.622765 38.000000 0.764327 0.500000 0.000000                 
; New Subcatchment
SUB-12224        RAINGAUGE_10YR   J-208            1.155299 38.000000 0.644909 0.500000 0.000000                 
; New Subcatchment
SUB-12226        RAINGAUGE_10YR   J-310            1.715710 38.000000 0.785911 1.321658 0.000000                 
; New Subcatchment
SUB-12228        RAINGAUGE_10YR   J-305            1.818375 38.000000 0.809083 1.183191 0.000000                 
; New Subcatchment
SUB-12230        RAINGAUGE_10YR   J-296            0.656138 38.000000 0.486014 0.500000 0.000000                 
; New Subcatchment
SUB-12232        RAINGAUGE_10YR   J-300            0.662444 38.000000 0.488344 0.500000 0.000000                 
; New Subcatchment
SUB-12234        RAINGAUGE_10YR   J-288            1.166244 38.000000 0.647957 0.500000 0.000000                 
; New Subcatchment
SUB-12238        RAINGAUGE_10YR   J-233            1.540522 38.000000 0.744707 1.570991 0.000000                 
; New Subcatchment
SUB-12240        RAINGAUGE_10YR   J-226            1.117068 38.000000 0.634149 3.008506 0.000000                 
; New Subcatchment
SUB-12242        RAINGAUGE_10YR   J-209            2.280767 38.000000 0.906132 0.500000 0.000000                 
; New Subcatchment
SUB-12244        RAINGAUGE_10YR   J-213            1.600218 38.000000 0.758998 0.500000 0.000000                 
; New Subcatchment
SUB-12246        RAINGAUGE_10YR   J-242            1.150682 38.000000 0.643619 0.500000 0.000000                 
; New Subcatchment
SUB-12248        RAINGAUGE_10YR   J-244            1.185491 38.000000 0.653281 0.500000 0.000000                 
; New Subcatchment
SUB-12250        RAINGAUGE_10YR   J-267            1.963239 38.000000 0.840694 0.500000 0.000000                 
; New Subcatchment
SUB-12252        RAINGAUGE_10YR   J-126            6.016147 38.000000 1.471670 0.787116 0.000000                 
; New Subcatchment
SUB-12256        RAINGAUGE_10YR   J-110            2.010787 38.000000 0.850813 1.032908 0.000000                 
; New Subcatchment
SUB-12258        RAINGAUGE_10YR   J-217            2.185710 38.000000 0.887049 1.463366 0.000000                 
; New Subcatchment
SUB-12260        RAINGAUGE_10YR   J-223            2.142711 38.000000 0.878280 0.923148 0.000000                 
; New Subcatchment
SUB-12262        RAINGAUGE_10YR   J-180            1.451843 38.000000 0.722955 1.114320 0.000000                 
; New Subcatchment
SUB-12264        RAINGAUGE_10YR   J-121            1.838406 38.000000 0.813527 1.567308 0.000000                 
; New Subcatchment
SUB-12266        RAINGAUGE_10YR   J-104            1.923741 38.000000 0.832194 0.500000 0.000000                 
; New Subcatchment
SUB-12268        RAINGAUGE_10YR   J-185            2.964343 38.000000 1.033036 0.993431 0.000000                 
; New Subcatchment
SUB-12272        RAINGAUGE_10YR   J-80             2.890318 38.000000 1.020056 1.632213 0.000000                 
; New Subcatchment
SUB-12274        RAINGAUGE_10YR   J-83             2.029851 38.000000 0.854837 0.464546 0.000000                 
; New Subcatchment
SUB-12276        RAINGAUGE_10YR   J-402            3.564371 38.000000 1.132772 0.629194 0.000000                 
; New Subcatchment
SUB-12278        RAINGAUGE_10YR   J-396            2.828651 38.000000 1.009116 0.516109 0.000000                 
; New Subcatchment
SUB-12280        RAINGAUGE_10YR   J-368            3.817137 38.000000 1.172250 0.516308 0.000000                 
; New Subcatchment
SUB-12284        RAINGAUGE_10YR   J-380            2.230025 46.504578 0.895996 0.679221 0.000000                 
; New Subcatchment
SUB-12286        RAINGAUGE_10YR   J-363            2.169134 30.942353 0.883679 0.248786 0.000000                 
; New Subcatchment
SUB-12288        RAINGAUGE_10YR   J-342            4.010839 15.203191 1.201625 0.845325 0.000000                 
; New Subcatchment
SUB-12290        RAINGAUGE_10YR   J-410            2.003805 38.000000 0.849335 0.681868 0.000000                 
; New Subcatchment
SUB-12292        RAINGAUGE_10YR   J-415            2.397409 38.000000 0.929014 0.810689 0.000000                 
; New Subcatchment
SUB-12294        RAINGAUGE_10YR   J-431            2.811220 38.000000 1.006002 0.597502 0.000000                 
; New Subcatchment
SUB-12296        RAINGAUGE_10YR   J-388            1.661504 38.000000 0.773396 0.770134 0.000000                 
; New Subcatchment
SUB-12300        RAINGAUGE_10YR   J-384            3.450074 38.000000 1.114462 0.688278 0.000000                 
; New Subcatchment
SUB-12302        RAINGAUGE_10YR   J-421            3.792378 38.000000 1.168442 0.449172 0.000000                 
; New Subcatchment
SUB-12304        RAINGAUGE_10YR   J-422            1.573760 41.810930 0.752697 0.486957 0.000000                 
; New Subcatchment
SUB-12306        RAINGAUGE_10YR   J-430            3.285546 38.000000 1.087565 0.931306 0.000000                 
; New Subcatchment
SUB-12308        RAINGAUGE_10YR   J-423            5.234863 38.000000 1.372789 1.319153 0.000000                 
; New Subcatchment
SUB-12310        RAINGAUGE_10YR   J-459            4.789236 55.619789 1.313059 1.129717 0.000000                 
; New Subcatchment
SUB-12312        RAINGAUGE_10YR   J-445            0.564112 38.000000 0.450644 1.489169 0.000000                 
; New Subcatchment
SUB-12314        RAINGAUGE_10YR   J-763            3.480983 50.808594 1.119444 0.873483 0.000000                 
; New Subcatchment
SUB-12316        RAINGAUGE_10YR   J-440            2.851790 54.309348 1.013235 1.155351 0.000000                 
; New Subcatchment
SUB-12318        RAINGAUGE_10YR   J-147            3.444354 38.000000 1.113538 1.247387 0.000000                 
; New Subcatchment
SUB-12320        RAINGAUGE_10YR   J-438            2.098156 38.000000 0.869101 0.907396 0.000000                 
; New Subcatchment
SUB-12322        RAINGAUGE_10YR   J-437            2.969191 38.000000 1.033880 0.500000 0.000000                 
; New Subcatchment
SUB-12324        RAINGAUGE_10YR   J-152            2.939024 38.000000 1.028615 1.101998 0.000000                 
; New Subcatchment
SUB-12326        RAINGAUGE_10YR   J-170            0.693874 38.000000 0.499794 1.349391 0.000000                 
; New Subcatchment
SUB-12328        RAINGAUGE_10YR   J-161            1.344514 38.000000 0.695719 0.500000 0.000000                 
; New Subcatchment
SUB-12330        RAINGAUGE_10YR   J-163            0.795421 38.000000 0.535118 0.500000 0.000000                 
; New Subcatchment
SUB-12332        RAINGAUGE_10YR   J-169            0.793206 38.000000 0.534373 1.098056 0.000000                 
; New Subcatchment
SUB-12334        RAINGAUGE_10YR   J-166            1.473026 38.000000 0.728210 0.500000 0.000000                 
; New Subcatchment
SUB-12336        RAINGAUGE_10YR   J-165            0.676126 38.000000 0.493361 0.500000 0.000000                 
; New Subcatchment
SUB-12340        RAINGAUGE_10YR   J-826            2.219292 40.802015 0.893837 0.500000 0.000000                 
; New Subcatchment
SUB-12344        RAINGAUGE_10YR   J-831            1.760608 38.000000 0.796127 0.500000 0.000000                 
; New Subcatchment
SUB-12346        RAINGAUGE_10YR   J-836            1.832686 38.011620 0.812260 0.500000 0.000000                 
; New Subcatchment
SUB-12348        RAINGAUGE_10YR   J-822            2.416580 39.726749 0.932721 0.500000 0.000000                 
; New Subcatchment
SUB-12350        RAINGAUGE_10YR   J-838            2.347390 39.696822 0.919272 0.500000 0.000000                 
; New Subcatchment
SUB-12352        RAINGAUGE_10YR   J-816            2.776386 38.000000 0.999749 0.500000 0.000000                 
; New Subcatchment
SUB-12354        RAINGAUGE_10YR   J-844            3.239500 38.000000 1.079917 0.500000 0.000000                 
; New Subcatchment
SUB-12356        RAINGAUGE_10YR   J-870            1.849594 39.945820 0.815999 0.500000 0.000000                 
; New Subcatchment
SUB-12358        RAINGAUGE_10YR   J-865            1.406665 38.000000 0.711617 0.500000 0.000000                 
; New Subcatchment
SUB-12362        RAINGAUGE_10YR   J-860            0.315975 38.000000 0.337270 0.500000 0.000000                 
; New Subcatchment
SUB-12364        RAINGAUGE_10YR   J-809            0.392424 48.258864 0.375863 0.500000 0.000000                 
; New Subcatchment
SUB-12366        RAINGAUGE_10YR   J-851            0.445075 42.921507 0.400284 0.500000 0.000000                 
; New Subcatchment
SUB-12368        RAINGAUGE_10YR   J-958            1.400307 88.302244 0.710007 0.349984 0.000000                 
; New Subcatchment
SUB-12372        RAINGAUGE_10YR   J-539            1.361940 67.980435 0.700213 0.209498 0.000000                 
; New Subcatchment
SUB-12374        RAINGAUGE_10YR   J-882            3.103400 65.000000 1.056988 1.003423 0.000000                 
; New Subcatchment
SUB-12376        RAINGAUGE_10YR   J-880            1.570882 65.000000 0.752009 5.242597 0.000000                 
; New Subcatchment
SUB-12380        RAINGAUGE_10YR   J-879            3.835548 65.000000 1.175073 3.692187 0.000000                 
; New Subcatchment
SUB-12382        RAINGAUGE_10YR   J-470            1.357419 88.536557 0.699050 1.033813 0.000000                 
; New Subcatchment
SUB-12386        RAINGAUGE_10YR   J-493            1.370075 87.353381 0.702301 0.500000 0.000000                 
; New Subcatchment
SUB-12388        RAINGAUGE_10YR   J-544            2.030037 87.322315 0.854876 0.500000 0.000000                 
; New Subcatchment
SUB-12394        RAINGAUGE_10YR   J-497            1.301524 65.000000 0.684506 0.500000 0.000000                 
; New Subcatchment
SUB-12396        RAINGAUGE_10YR   J-714            3.559167 65.000000 1.131945 0.500000 0.000000                 
; New Subcatchment
SUB-12398        RAINGAUGE_10YR   JCT-22           1.144543 65.000000 0.641900 0.500000 0.000000                 
; New Subcatchment
SUB-12400        RAINGAUGE_10YR   J-793            0.792697 65.000000 0.534201 0.500000 0.000000                 
; New Subcatchment
SUB-12402        RAINGAUGE_10YR   J-712            2.967606 65.000000 1.033604 0.500000 0.000000                 
; New Subcatchment
SUB-12404        RAINGAUGE_10YR   J-719            2.013431 65.000000 0.851373 0.500000 0.000000                 
; New Subcatchment
SUB-12408        RAINGAUGE_10YR   J-508            6.130531 65.000000 1.485595 0.500000 0.000000                 
; New Subcatchment
SUB-12410        RAINGAUGE_10YR   J-766            1.618069 65.000000 0.763220 0.500000 0.000000                 
; New Subcatchment
SUB-12414        RAINGAUGE_10YR   J-728            2.698631 65.000000 0.985651 0.500000 0.000000                 
; New Subcatchment
SUB-12418        RAINGAUGE_10YR   J-498            3.726118 65.000000 1.158189 0.500000 0.000000                 
; New Subcatchment
SUB-12420        RAINGAUGE_10YR   J-776            1.483550 65.000000 0.730806 0.500000 0.000000                 
; New Subcatchment
SUB-12422        RAINGAUGE_10YR   J-734            1.682100 65.000000 0.778175 0.500000 0.000000                 
; New Subcatchment
SUB-12424        RAINGAUGE_10YR   J-47             1.790292 85.853410 0.802811 0.500000 0.000000                 
; New Subcatchment
SUB-12428        RAINGAUGE_10YR   J-550            1.063143 85.375718 0.618653 0.500000 0.000000                 
; New Subcatchment
SUB-12430        RAINGAUGE_10YR   J-555            3.191646 67.721343 1.071911 0.500000 0.000000                 
; New Subcatchment
SUB-12432        RAINGAUGE_10YR   J-559            0.881819 38.000000 0.563431 0.500000 0.000000                 
; New Subcatchment
SUB-12434        RAINGAUGE_10YR   J-951            2.102631 66.019335 0.870027 0.500000 0.000000                 
; New Subcatchment
SUB-12438        RAINGAUGE_10YR   J-290            4.064991 38.000000 1.209709 1.030392 0.000000                 
; New Subcatchment
SUB-12442        RAINGAUGE_10YR   J-15             0.443281 38.000000 0.399476 1.680288 0.000000                 
; New Subcatchment
SUB-12444        RAINGAUGE_10YR   J-479            1.208836 87.928633 0.659683 0.644877 0.000000                 
; New Subcatchment
SUB-12446        RAINGAUGE_10YR   J-480            1.435705 84.512570 0.718925 0.500000 0.000000                 
; New Subcatchment
SUB-12448        RAINGAUGE_10YR   J-247            1.914041 38.000000 0.830093 1.646165 0.000000                 
; New Subcatchment
SUB-12450        RAINGAUGE_10YR   J-684            1.157335 38.000000 0.645477 0.500000 0.000000                 
; New Subcatchment
SUB-12452        RAINGAUGE_10YR   J-203            1.426138 38.000000 0.716526 0.500000 0.000000                 
; New Subcatchment
SUB-12454        RAINGAUGE_10YR   J-754            1.506574 42.585206 0.736455 0.500000 0.000000                 
; New Subcatchment
SUB-12456        RAINGAUGE_10YR   J-750            1.048915 42.101838 0.614499 0.500000 0.000000                 
; New Subcatchment
SUB-12458        RAINGAUGE_10YR   J-903            1.225592 49.092094 0.664239 0.500000 0.000000                 
; New Subcatchment
SUB-12460        RAINGAUGE_10YR   J-77             1.645154 49.092000 0.664000 0.500000 0.000000                 

[SUBAREAS]
;;Subcatchment   N-Imperv   N-Perv     S-Imperv   S-Perv     PctZero    RouteTo    PctRouted 
;;-------------- ---------- ---------- ---------- ---------- ---------- ---------- ----------
SUB-11856        0.100000   0.001000   0.050000   0.050000   25.000000  OUTLET    
SUB-11868        0.100000   0.001000   0.050000   0.050000   25.000000  OUTLET    
SUB-11924        0.100000   0.001000   0.050000   0.050000   25.000000  OUTLET    
SUB-11926        0.100000   0.001000   0.050000   0.050000   25.000000  OUTLET    
SUB-11930        0.100000   0.001000   0.050000   0.050000   25.000000  OUTLET    
SUB-11932        0.100000   0.001000   0.050000   0.050000   25.000000  OUTLET    
SUB-11936        0.100000   0.001000   0.050000   0.050000   25.000000  OUTLET    
SUB-11944        0.100000   0.001000   0.050000   0.050000   25.000000  OUTLET    
SUB-11948        0.100000   0.001000   0.050000   0.050000   25.000000  OUTLET    
SUB-11950        0.100000   0.001000   0.050000   0.050000   25.000000  OUTLET    
SUB-11954        0.100000   0.001000   0.050000   0.050000   25.000000  OUTLET    
SUB-11958        0.100000   0.001000   0.050000   0.050000   25.000000  OUTLET    
SUB-11968        0.100000   0.001000   0.050000   0.050000   25.000000  OUTLET    
SUB-11970        0.100000   0.001000   0.050000   0.050000   25.000000  OUTLET    
SUB-11972        0.100000   0.001000   0.050000   0.050000   25.000000  OUTLET    
SUB-11978        0.100000   0.001000   0.050000   0.050000   25.000000  OUTLET    
SUB-11984        0.100000   0.001000   0.050000   0.050000   25.000000  OUTLET    
SUB-11986        0.100000   0.001000   0.050000   0.050000   25.000000  OUTLET    
SUB-11988        0.100000   0.001000   0.050000   0.050000   25.000000  OUTLET    
SUB-11990        0.100000   0.001000   0.050000   0.050000   25.000000  OUTLET    
SUB-11994        0.100000   0.001000   0.050000   0.050000   25.000000  OUTLET    
SUB-11998        0.100000   0.001000   0.050000   0.050000   25.000000  OUTLET    
SUB-12004        0.100000   0.001000   0.050000   0.050000   25.000000  OUTLET    
SUB-12010        0.100000   0.001000   0.050000   0.050000   25.000000  OUTLET    
SUB-12014        0.100000   0.001000   0.050000   0.050000   25.000000  OUTLET    
SUB-12016        0.100000   0.001000   0.050000   0.050000   25.000000  OUTLET    
SUB-12024        0.100000   0.001000   0.050000   0.050000   25.000000  OUTLET    
SUB-12036        0.100000   0.001000   0.050000   0.050000   25.000000  OUTLET    
SUB-12044        0.100000   0.001000   0.050000   0.050000   25.000000  OUTLET    
SUB-12046        0.100000   0.001000   0.050000   0.050000   25.000000  OUTLET    
SUB-12048        0.100000   0.001000   0.050000   0.050000   25.000000  OUTLET    
SUB-12052        0.100000   0.001000   0.050000   0.050000   25.000000  OUTLET    
SUB-12060        0.100000   0.001000   0.050000   0.050000   25.000000  OUTLET    
SUB-12062        0.100000   0.001000   0.050000   0.050000   25.000000  OUTLET    
SUB-12068        0.100000   0.001000   0.050000   0.050000   25.000000  OUTLET    
SUB-12072        0.100000   0.001000   0.050000   0.050000   25.000000  OUTLET    
SUB-12084        0.100000   0.001000   0.050000   0.050000   25.000000  OUTLET    
SUB-12086        0.100000   0.001000   0.050000   0.050000   25.000000  OUTLET    
SUB-12088        0.100000   0.001000   0.050000   0.050000   25.000000  OUTLET    
SUB-12100        0.100000   0.001000   0.050000   0.050000   25.000000  OUTLET    
SUB-12110        0.100000   0.001000   0.050000   0.050000   25.000000  OUTLET    