[TITLE]
;;Project Title/Notes
          Metropolitan Sewer District of Greater Cincinnati - Capacity Assessment Project
          RUNOFF Input for Indian Creek WWTP Model  10-year design storm  rainfall AF=1.00
          India Creek WTP Service Area   Resize
          10-year design storm  future condition  Rf=1.00

[OPTIONS]
;;Option             Value
FLOW_UNITS           CFS
INFILTRATION         HORTON
FLOW_ROUTING         DYNWAVE
LINK_OFFSETS         DEPTH
MIN_SLOPE            0
ALLOW_PONDING        NO
SKIP_STEADY_STATE    NO

START_DATE           07/01/2003
START_TIME           00:00:00
REPORT_START_DATE    07/01/2003
REPORT_START_TIME    00:00:00
END_DATE             07/02/2003
END_TIME             00:00:00
SWEEP_START          01/01
SWEEP_END            12/31
DRY_DAYS             0
REPORT_STEP          00:01:00
WET_STEP             00:05:00
DRY_STEP             00:05:00
ROUTING_STEP         0:01:00 

INERTIAL_DAMPING     PARTIAL
NORMAL_FLOW_LIMITED  BOTH
FORCE_MAIN_EQUATION  H-W
VARIABLE_STEP        0.95
LENGTHENING_STEP     60
MIN_SURFAREA         12
MAX_TRIALS           8
HEAD_TOLERANCE       0.005
SYS_FLOW_TOL         5
LAT_FLOW_TOL         5
MINIMUM_STEP         0.5
THREADS              1

[EVAPORATION]
;;Data Source    Parameters
;;-------------- ----------------
CONSTANT         0.0
DRY_ONLY         NO

[RAINGAGES]
;;Name           Format    Interval SCF      Source    
;;-------------- --------- ------ ------ ----------
GAGE1            INTENSITY 0.25000  1.0      TIMESERIES RainSeries1     

[JUNCTIONS]
;;Name           Elevation  MaxDepth   InitDepth  SurDepth   Aponded   
;;-------------- ---------- ---------- ---------- ---------- ----------
10703001         694.35     13.00      .00        0          0         
10703002         699.31     15.00      .00        0          0         
10703003         703.08     11.00      .00        0          0         
10706001         714.21     11.00      .00        0          0         
10706002         720.29     13.00      .00        0          0         
10706003         728.26     12.00      .00        0          0         
10706004         741.76     19.00      .00        0          0         
10711001         803.93     11.00      .00        0          0         
10711002         814.11     7.00       .00        0          0         
10711003         818.95     10.00      .00        0          0         
10711004         824.80     10.00      .00        0          0         
10711005         825.29     10.00      .00        0          0         
10711006         826.02     7.00       .00        0          0         
10712005         758.83     11.00      .00        0          0         
10712006         775.76     11.00      .00        0          0         
10712007         790.00     7.00       .00        0          0         
10712008         824.00     5.00       .00        0          0         
10713001         841.20     7.00       .00        0          0         
10713002         843.10     11.00      .00        0          0         
10713003         843.70     10.00      .00        0          0         
10807001         622.16     42.00      .00        0          0         
10807003         634.14     26.00      .00        0          0         
10807004         644.51     18.00      .00        0          0         
10808001         559.61     18.00      .00        0          0         
10810001         645.68     19.00      .00        0          0         
10810002         677.43     14.00      .00        0          0         
10810003         646.40     18.00      .00        0          0         
10810004         647.38     14.00      .00        0          0         
10811001         648.25     13.00      .00        0          0         
10811003         654.79     12.00      .00        0          0         
10811004         666.16     11.00      .00        0          0         
10814001         668.68     12.00      .00        0          0         
10814002         681.76     8.00       .00        0          0         
10814003         683.39     14.00      .00        0          0         
10814004         685.85     10.00      .00        0          0         
10814007         679.31     10.00      .00        0          0         
7304008          481.26     9.00       .00        0          0         
7304010          479.88     7.00       .00        0          0         
7304026          470.34     15.00      .00        0          0         
7304027          469.17     19.00      .00        0          0         
7304028          488.83     15.00      .00        0          0         
7304029          491.44     9.00       .00        0          0         
7305001          477.84     10.00      .00        0          0         
7305002          476.36     12.00      .00        0          0         
7305003          475.53     12.00      .00        0          0         
7305004          478.18     11.00      .00        0          0         
7305007          478.46     11.00      .00        0          0         
7305008          483.66     8.00       .00        0          0         
7305010          481.97     12.00      .00        0          0         
7305015          483.66     11.00      .00        0          0         
7305019          485.84     11.00      .00        0          0         
7305022          492.70     9.00       .00        0          0         
7305023          499.34     7.00       .00        0          0         
7305024          480.03     10.00      .00        0          0         
7305025          487.31     11.00      .00        0          0         
7306005          474.94     8.00       .00        0          0         
7306006          474.18     13.00      .00        0          0         
7306007          472.53     13.00      .00        0          0         
7306008          471.60     14.00      .00        0          0         
7306009          475.52     9.00       .00        0          0         
7311001          476.08     9.00       .00        0          0         
7311002          477.35     5.00       .00        0          0         
7311003          477.69     6.00       .00        0          0         
7312003          479.12     11.00      .00        0          0         
7312005          481.72     11.00      .00        0          0         
7312006          483.53     12.00      .00        0          0         
7312012          477.98     10.00      .00        0          0         
7312013          477.53     11.00      .00        0          0         
7312014          476.85     11.00      .00        0          0         
7404003          499.23     10.00      .00        0          0         
7404004          500.84     13.00      .00        0          0         
7404005          503.00     12.00      .00        0          0         
7411005          479.31     10.00      .00        0          0         
7411007          472.32     11.00      .00        0          0         
7411021          485.00     5.00       .00        0          0         
7411026          468.81     16.00      .00        0          0         
7411027          467.76     17.00      .00        0          0         
7411028          466.92     18.00      .00        0          0         
7411029          466.37     12.00      .00        0          0         
7411030          464.28     15.00      .00        0          0         
7411031          455.00     25.00      .00        0          0         
7413002          477.69     12.31      .00        0          0         
7413003          472.21     17.79      .00        0          0         
7413004          479.63     12.00      .00        0          0         
7413009          484.66     11.00      .00        0          0         
7413010          485.34     10.00      .00        0          0         
7413011          486.73     10.00      .00        0          0         
7413012          487.82     10.00      .00        0          0         
7413024          468.24     19.00      .00        0          0         
7413025          467.32     18.00      .00        0          0         
7414001          465.65     18.00      .00        0          0         
7414002          467.61     11.00      .00        0          0         
7414003          466.53     14.00      .00        0          0         
7513005          485.28     5.00       .00        0          0         
7513006          485.54     5.00       .00        0          0         
7513007          486.40     9.00       .00        0          0         
7513008          486.93     12.00      .00        0          0         
7513009          487.36     14.00      .00        0          0         
7513010          488.23     12.00      .00        0          0         
7513012          487.04     13.00      .00        0          0         
7513018          461.70     24.00      .00        0          0         
7513019          462.76     22.00      .00        0          0         
7513020          463.54     19.00      .00        0          0         
7811001          502.48     17.00      .00        0          0         
7811002          503.99     8.00       .00        0          0         
7811003          504.82     7.00       .00        0          0         
7811004          505.52     8.00       .00        0          0         
7811005          505.91     10.00      .00        0          0         
7811006          507.20     12.00      .00        0          0         
7815001          485.87     12.00      .00        0          0         
7815002          492.83     11.00      .00        0          0         
7815003          498.57     9.00       .00        0          0         
7815009          498.63     11.00      .00        0          0         
7815010          499.01     9.00       .00        0          0         
7815011          499.83     13.00      .00        0          0         
7815012          500.83     19.00      .00        0          0         
7816005          488.97     6.00       .00        0          0         
7816011          466.00     24.00      .00        0          0         
7816012          465.17     21.00      .00        0          0         
7816013          478.07     14.00      .00        0          0         
7816014          474.52     18.00      .00        0          0         
7816015          473.57     19.00      .00        0          0         
7816016          468.38     24.00      .00        0          0         
7816017          467.81     12.00      .00        0          0         
7901003          504.80     8.00       .00        0          0         
7901004          506.94     10.00      .00        0          0         
7901005          511.25     13.00      .00        0          0         
7901008          468.68     11.00      .00        0          0         
7901009          470.03     18.00      .00        0          0         
7901010          471.12     16.00      .00        0          0         
7901011          473.47     19.00      .00        0          0         
7901012          472.37     13.00      .00        0          0         
7903003          493.61     15.00      .00        0          0         
7903009          502.40     12.00      .00        0          0         
7903010          505.35     11.00      .00        0          0         
7903011          517.94     13.00      .00        0          0         
7904001          521.85     17.00      .00        0          0         
7904002          527.14     17.00      .00        0          0         
7904003          540.59     15.00      .00        0          0         
7904004          524.95     17.00      .00        0          0         
7905003          552.11     17.00      .00        0          0         
7906003          480.84     20.00      .00        0          0         
7906004          486.11     12.00      .00        0          0         
7907001          475.17     17.00      .00        0          0         
7907002          477.19     15.00      .00        0          0         
7907003          478.81     18.00      .00        0          0         
7907004          479.89     14.00      .00        0          0         
7907005          480.06     22.00      .00        0          0         
8006001          578.62     9.00       .00        0          0         
8006002          580.92     12.00      .00        0          0         
8007001          528.73     11.00      .00        0          0         
8007002          540.27     11.00      .00        0          0         
8007003          555.48     11.00      .00        0          0         
8007004          557.43     13.00      .00        0          0         
8007005          569.03     10.00      .00        0          0         
8008002          493.20     10.00      .00        0          0         
8008003          494.54     11.00      .00        0          0         
8008004          498.40     13.00      .00        0          0         
8008005          501.18     11.00      .00        0          0         
8008006          501.67     12.00      .00        0          0         
8008007          504.37     11.00      .00        0          0         
8008008          513.54     12.00      .00        0          0         
8008009          524.80     12.00      .00        0          0         
8009001          585.85     5.00       .00        0          0         
8009002          604.35     10.00      .00        0          0         
8009003          608.46     16.00      .00        0          0         
8009008          616.82     13.00      .00        0          0         
8009009          618.48     23.00      .00        0          0         
8009012          544.40     8.00       .00        0          0         
8016005          637.26     27.00      .00        0          0         
8016006          638.43     12.00      .00        0          0         
8016007          639.05     25.00      .00        0          0         
8016011          640.67     20.00      .00        0          0         
8016014          641.41     7.00       .00        0          0         

[OUTFALLS]
;;Name           Elevation  Type       Stage Data       Gated    Route To        
;;-------------- ---------- ---------- ---------------- -------- ----------------
7513023          479.4      NORMAL                      NO                       
7513017          460.53     NORMAL                      NO                       

[CONDUITS]
;;Name           From Node        To Node          Length     Roughness  InOffset   OutOffset  InitFlow   MaxFlow   
;;-------------- ---------------- ---------------- ---------- ---------- ---------- ---------- ---------- ----------
7305003-7306005  7305003          7306005          133.26     0.015      0.0        0.0        0.0        0         
7305004-7305001  7305004          7305001          223.29     0.015      0.0        0.0        0.0        0         
7305007-7305004  7305007          7305004          98.78      0.015      0.0        0.0        0.0        0         
7305008-7305007  7305008          7305007          247.92     0.015      0.0        0.0        0.0        0         
7305010-7305024  7305010          7305024          402.65     0.015      0.0        0.0        0.0        0         
7305015-7305010  7305015          7305010          213.28     0.015      0.0        0.0        0.0        0         
7305019-7305015  7305019          7305015          170.16     0.015      0.0        0.0        0.0        0         
7305022-7305025  7305022          7305025          142.84     0.015      0.0        0.0        0.0        0         
7305023-7305022  7305023          7305022          111.63     0.015      0.0        1.7        0.0        0         
7305024-7305003  7305024          7305003          338.77     0.015      0.0        0.21       0.0        0         
7305025-7305019  7305025          7305019          91.19      0.015      0.0        0.0        0.0        0         
7306005-7306006  7306005          7306006          257.62     0.015      0.0        0.0        0.0        0         
7306006-7306007  7306006          7306007          369.19     0.015      0.0        0.0        0.0        0         
7306007-7306008  7306007          7306008          341.6      0.015      0.0        0.0        0.0        0         
7306008-7304026  7306008          7304026          386.65     0.015      0.0        0.0        0.0        0         
7312003-7312012  7312003          7312012          340.46     0.015      0.0        0.0        0.0        0         
7312005-7312003  7312005          7312003          181.73     0.015      0.0        0.0        0.0        0         
7312006-7312005  7312006          7312005          139.08     0.015      0.0        0.0        0.0        0         
7312012-7312013  7312012          7312013          65.85      0.015      0.0        0.0        0.0        0         
7312013-7312014  7312013          7312014          185.14     0.015      0.0        0.0        0.0        0         
7312014-7305003  7312014          7305003          260.06     0.015      0.0        0.2        0.0        0         
8006001-8007005  8006001          8007005          285.49     0.015      0.0        0.0        0.0        0         
8006002-8006001  8006002          8006001          140.04     0.015      0.0        0.0        0.0        0         
8007001-8008009  8007001          8008009          173.72     0.015      0.0        0.0        0.0        0         
8007002-8007001  8007002          8007001          223.14     0.015      0.0        0.0        0.0        0         
8007003-8007002  8007003          8007002          401.32     0.015      0.0        0.01       0.0        0         
8007004-8007003  8007004          8007003          195.94     0.015      0.0        0.0        0.0        0         
8007005-8007004  8007005          8007004          394.66     0.015      0.0        0.0        0.0        0         
8008002-7305022  8008002          7305022          86.93      0.015      0.0        0.0        0.0        0         
8008003-8008002  8008003          8008002          125.84     0.015      0.0        0.0        0.0        0         
8008004-8008003  8008004          8008003          227.64     0.015      0.0        0.0        0.0        0         
8008005-8008004  8008005          8008004          169.39     0.015      0.0        0.0        0.0        0         
8008006-8008005  8008006          8008005          48.93      0.015      0.0        0.0        0.0        0         
8008007-8008006  8008007          8008006          188.29     0.015      0.0        0.0        0.0        0         
8008008-8008007  8008008          8008007          335.0      0.015      0.0        0.0        0.0        0         
8008009-8008008  8008009          8008008          236.97     0.015      0.0        0.0        0.0        0         
8009001-8009012  8009001          8009012          285.19     0.015      0.0        0.0        0.0        0         
8009002-8009001  8009002          8009001          197.24     0.015      0.0        0.0        0.0        0         
8009003-8009002  8009003          8009002          325.6      0.015      0.0        0.0        0.0        0         
8009008-8009003  8009008          8009003          197.95     0.015      0.0        0.0        0.0        0         
8009009-8009008  8009009          8009008          234.34     0.015      0.0        0.0        0.0        0         
8009012-7305023  8009012          7305023          319.37     0.015      0.0        0.0        0.0        0         
8016005-8009009  8016005          8009009          172.66     0.015      0.0        9.72       0.0        0         
8016006-8016005  8016006          8016005          210.94     0.015      0.0        0.0        0.0        0         
8016007-8016006  8016007          8016006          226.06     0.015      0.0        0.0        0.0        0         
8016011-8016007  8016011          8016007          271.6      0.015      0.0        0.0        0.0        0         
8016014-8016011  8016014          8016011          309.31     0.015      0.0        0.0        0.0        0         
7304008-7304010  7304008          7304010          358.19     0.015      0.0        0.0        0.0        0         
7304010-7305007  7304010          7305007          425.05     0.015      0.0        0.11       0.0        0         
7304026-7304027  7304026          7304027          343.05     0.015      0.0        0.0        0.0        0         
7305001-7305002  7305001          7305002          306.61     0.015      0.0        0.0        0.0        0         
7305002-7305003  7305002          7305003          163.69     0.015      0.0        0.2        0.0        0         
7311002-7311001  7311002          7311001          313.26     0.015      0.0        0.0        0.0        0         
7311003-7311002  7311003          7311002          80.73      0.015      0.0        0.0        0.0        0         
7306009-7306005  7306009          7306005          103.01     0.015      0.0        0.0        0.0        0         
7311001-7306009  7311001          7306009          115.5      0.015      0.0        0.0        0.0        0         
7304028-7413012  7304028          7413012          261.03     0.015      0.0        0.03       0.0        0         
7304029-7304028  7304029          7304028          26.84      0.015      0.0        0.24       0.0        0         
7413011-7413010  7413011          7413010          371.08     0.015      0.0        0.0        0.0        0         
7413012-7413011  7413012          7413011          233.93     0.015      0.0        0.0        0.0        0         
7413010-7413009  7413010          7413009          144.26     0.015      0.0        0.0        0.0        0         
7413009-7413004  7413009          7413004          168.26     0.015      0.0        0.0        0.0        0         
7811001-7815012  7811001          7815012          396.45     0.015      0.0        0.0        0.0        0         
7811002-7811001  7811002          7811001          399.09     0.015      0.0        0.0        0.0        0         
7811003-7811002  7811003          7811002          176.83     0.015      0.0        0.0        0.0        0         
7811004-7811003  7811004          7811003          170.14     0.015      0.0        0.0        0.0        0         
7811005-7811004  7811005          7811004          69.53      0.015      0.0        0.0        0.0        0         
7811006-7811005  7811006          7811005          308.17     0.015      0.0        0.0        0.0        0         
7815001-7816013  7815001          7816013          344.74     0.015      0.0        0.0        0.0        0         
7815002-7815001  7815002          7815001          301.7      0.015      0.0        0.0        0.0        0         
7815003-7815002  7815003          7815002          220.38     0.015      0.0        0.0        0.0        0         
7815009-7815003  7815009          7815003          23.95      0.015      0.0        0.0        0.0        0         
7815010-7815009  7815010          7815009          76.24      0.015      0.0        0.0        0.0        0         
7815011-7815010  7815011          7815010          212.96     0.015      0.0        0.0        0.0        0         
7815012-7815011  7815012          7815011          280.68     0.015      0.0        0.0        0.0        0         
7816013-7816014  7816013          7816014          319.96     0.015      0.0        0.0        0.0        0         
10703001-10814004 10703001         10814004         382.63     0.015      0.0        0.0        0.0        0         
10703002-10703001 10703002         10703001         241.69     0.015      0.0        0.0        0.0        0         
10703003-10703002 10703003         10703002         400.23     0.015      0.0        0.0        0.0        0         
10706001-10703003 10706001         10703003         310.51     0.015      0.0        0.0        0.0        0         
10706002-10706001 10706002         10706001         238.34     0.015      0.0        0.0        0.0        0         
10706003-10706002 10706003         10706002         220.86     0.015      0.0        0.0        0.0        0         
10706004-10706003 10706004         10706003         162.83     0.015      0.0        0.0        0.0        0         
10711001-10712006 10711001         10712006         147.63     0.015      0.0        0.0        0.0        0         
10711002-10711001 10711002         10711001         196.66     0.015      0.0        0.0        0.0        0         
10711003-10711002 10711003         10711002         185.88     0.015      0.0        0.0        0.0        0         
10711004-10711003 10711004         10711003         195.58     0.015      0.0        0.0        0.0        0         
10711005-10711004 10711005         10711004         81.03      0.015      0.0        0.0        0.0        0         
10711006-10711005 10711006         10711005         55.81      0.015      0.0        0.0        0.0        0         
10712005-10706004 10712005         10706004         383.26     0.015      0.0        0.0        0.0        0         
10712006-10712005 10712006         10712005         371.04     0.015      0.0        0.0        0.0        0         
10712007-10712006 10712007         10712006         126.73     0.015      0.0        0.24       0.0        0         
10712008-10712007 10712008         10712007         282.31     0.015      0.0        0.0        0.0        0         
10713001-10712008 10713001         10712008         208.63     0.015      0.0        0.0        0.0        0         
10713002-10713001 10713002         10713001         79.01      0.015      0.0        0.0        0.0        0         
10713003-10713002 10713003         10713002         91.0       0.015      0.0        0.0        0.0        0         
10807001-10808001 10807001         10808001         1318.69    0.015      0.0        0.0        0.0        0         
10807003-10807001 10807003         10807001         247.92     0.015      0.0        0.0        0.0        0         
10807004-10807003 10807004         10807003         147.95     0.015      0.0        0.0        0.0        0         
10808001-7905003 10808001         7905003          354.06     0.015      0.0        0.0        0.0        0         
10810001-10807004 10810001         10807004         386.88     0.015      0.0        0.0        0.0        0         
10810002-10810001 10810002         10810001         249.86     0.015      0.0        0.44       0.0        0         
10810003-10810001 10810003         10810001         234.38     0.015      0.0        0.0        0.0        0         
10810004-10810003 10810004         10810003         399.19     0.015      0.0        0.0        0.0        0         
10811001-10810004 10811001         10810004         281.03     0.015      0.0        0.0        0.0        0         
10811003-10811001 10811003         10811001         384.85     0.015      0.0        0.0        0.0        0         
10811004-10811003 10811004         10811003         398.49     0.015      0.0        0.0        0.0        0         
10814001-10811004 10814001         10811004         188.62     0.015      0.0        0.0        0.0        0         
10814002-10814007 10814002         10814007         70.99      0.015      0.0        0.0        0.0        0         
10814003-10814002 10814003         10814002         175.77     0.015      0.0        0.0        0.0        0         
10814004-10814003 10814004         10814003         165.1      0.015      0.0        0.0        0.0        0         
10814007-10814001 10814007         10814001         302.22     0.015      0.0        0.0        0.0        0         
7816014-7816015  7816014          7816015          154.4      0.015      0.0        0.0        0.0        0         
7816015-7816016  7816015          7816016          158.07     0.015      0.0        0.0        0.0        0         
7816016-7816017  7816016          7816017          52.01      0.015      0.0        0.18       0.0        0         
7816017-7816011  7816017          7816011          370.21     0.015      0.0        0.0        0.0        0         
7901008-7816017  7901008          7816017          274.16     0.015      0.0        0.0        0.0        0         
7901009-7901008  7901009          7901008          316.12     0.015      0.0        0.0        0.0        0         
7901010-7901009  7901010          7901009          310.78     0.015      0.0        0.0        0.0        0         
7901011-7901012  7901011          7901012          245.1      0.015      0.0        0.0        0.0        0         
7901012-7901010  7901012          7901010          255.96     0.015      0.0        0.0        0.0        0         
7903003-7906004  7903003          7906004          401.24     0.015      0.0        0.0        0.0        0         
7903009-7903003  7903009          7903003          188.74     0.015      0.0        0.0        0.0        0         
7903010-7903009  7903010          7903009          290.69     0.015      0.0        0.0        0.0        0         
7903011-7903010  7903011          7903010          390.75     0.015      0.0        0.0        0.0        0         
7904001-7903011  7904001          7903011          390.26     0.015      0.0        0.0        0.0        0         
7904002-7904001  7904002          7904001          168.68     0.015      0.0        0.2        0.0        0         
7904003-7904002  7904003          7904002          401.27     0.015      0.0        0.0        0.0        0         
7904004-7904001  7904004          7904001          154.75     0.015      0.0        1.0        0.0        0         