[TITLE]
;;Project Title/Notes

[OPTIONS]
;;Option             Value
FLOW_UNITS           CFS
INFILTRATION         HORTON
FLOW_ROUTING         DYNWAVE
LINK_OFFSETS         DEPTH
MIN_SLOPE            0
ALLOW_PONDING        NO
SKIP_STEADY_STATE    NO

START_DATE           01/01/2002
START_TIME           00:00:00
REPORT_START_DATE    01/01/2002
REPORT_START_TIME    00:00:00
END_DATE             01/01/2002
END_TIME             06:00:00
SWEEP_START          01/01
SWEEP_END            12/31
DRY_DAYS             5.000000
REPORT_STEP          00:05:00
WET_STEP             01:00:00
DRY_STEP             23:00:00
ROUTING_STEP         0:00:30 

INERTIAL_DAMPING     NONE
NORMAL_FLOW_LIMITED  BOTH
FORCE_MAIN_EQUATION  H-W
VARIABLE_STEP        0.75
LENGTHENING_STEP     10
MIN_SURFAREA         12.557
MAX_TRIALS           8
HEAD_TOLERANCE       0.001
SYS_FLOW_TOL         5
LAT_FLOW_TOL         5
MINIMUM_STEP         0
THREADS              1

[EVAPORATION]
;;Data Source    Parameters
;;-------------- ----------------
CONSTANT         0.0
DRY_ONLY         NO

[JUNCTIONS]
;;Name           Elevation  MaxDepth   InitDepth  SurDepth   Aponded   
;;-------------- ---------- ---------- ---------- ---------- ----------
AI-001           5093.050000 14.230000  0.000000   0.000000   0.000000  
AI-002           5083.580000 9.770000   0.000000   0.000000   0.000000  
AI-003           5078.880000 10.790000  0.000000   0.000000   0.000000  
AI-004           5074.180000 12.140000  0.000000   0.000000   0.000000  
AI-005           5069.310000 12.540000  0.000000   0.000000   0.000000  
AI-006           5068.270000 14.340000  0.000000   0.000000   0.000000  
AI-007           5066.320000 13.680000  0.000000   0.000000   0.000000  
AI-008           5061.090000 11.910000  0.000000   0.000000   0.000000  
AI-009           5052.300000 13.700000  0.000000   0.000000   0.000000  
AI-010           5052.110000 11.890000  0.000000   0.000000   0.000000  
AI-011           5050.960000 12.040000  0.000000   0.000000   0.000000  
AI-012           5049.270000 13.730000  0.000000   0.000000   0.000000  
AI-013           5047.790000 12.210000  0.000000   0.000000   0.000000  
AI-014           5046.310000 12.690000  0.000000   0.000000   0.000000  
AI-015           5044.540000 13.460000  0.000000   0.000000   0.000000  
AI-016           5042.860000 15.140000  0.000000   0.000000   0.000000  
AI-017           5040.660000 17.340000  0.000000   0.000000   0.000000  
AI-018           5038.460000 20.540000  0.000000   0.000000   0.000000  
AI-019           5036.100000 21.900000  0.000000   0.000000   0.000000  
AI-020           5035.100000 12.900000  0.000000   0.000000   0.000000  
AI-021           5033.460000 20.540000  0.000000   0.000000   0.000000  
AI-022           5031.820000 16.180000  0.000000   0.000000   0.000000  
AI-023           5024.500000 12.960000  0.000000   0.000000   0.000000  
AI-024           5013.950000 15.910000  0.000000   0.000000   0.000000  
AI-025           5012.310000 13.120000  0.000000   0.000000   0.000000  
AI-026           5010.670000 15.330000  0.000000   0.000000   0.000000  
AI-027           5006.700000 18.300000  0.000000   0.000000   0.000000  
AI-100           5042.600000 24.040000  0.000000   0.000000   0.000000  
AI-110           5037.900000 23.720000  0.000000   0.000000   0.000000  
AP-01            5057.390000 10.820000  0.000000   0.000000   0.000000  
AP-02            5058.510000 13.380000  0.000000   0.000000   0.000000  
AP-03            5060.980000 15.500000  0.000000   0.000000   0.000000  
AP-04            5062.670000 11.510000  0.000000   0.000000   0.000000  
AP-05            5065.980000 11.750000  0.000000   0.000000   0.000000  
AP-06            5069.560000 14.600000  0.000000   0.000000   0.000000  
AP-07            5072.100000 8.840000   0.000000   0.000000   0.000000  
AP-08            5074.070000 4.710000   0.000000   0.000000   0.000000  
AP1-01           5074.720000 11.570000  0.000000   0.000000   0.000000  
AP1-02           5076.480000 11.020000  0.000000   0.000000   0.000000  
AP1-03           5077.900000 11.800000  0.000000   0.000000   0.000000  
AP1-04           5080.990000 13.700000  0.000000   0.000000   0.000000  
AP1-05           5083.060000 8.120000   0.000000   0.000000   0.000000  
AP1-06           5091.800000 13.190000  0.000000   0.000000   0.000000  
AP1-07           5105.460000 11.930000  0.000000   0.000000   0.000000  
AP2-01           5075.610000 4.810000   0.000000   0.000000   0.000000  
AP2-02           5086.470000 10.320000  0.000000   0.000000   0.000000  
AP2-03           5097.270000 14.770000  0.000000   0.000000   0.000000  
AP2-04           5101.050000 8.500000   0.000000   0.000000   0.000000  
AP2-05           5111.340000 13.400000  0.000000   0.000000   0.000000  
AP2-06           5120.460000 12.880000  0.000000   0.000000   0.000000  
AP3-01           5077.500000 6.990000   0.000000   0.000000   0.000000  
AP3-02           5079.930000 3.470000   0.000000   0.000000   0.000000  
ARE-001          5198.820000 11.150000  0.000000   0.000000   0.000000  
ARE-002          5197.930000 12.460000  0.000000   0.000000   0.000000  
ARE-004          5196.690000 11.100000  0.000000   0.000000   0.000000  
ARE-005          5195.500000 11.150000  0.000000   0.000000   0.000000  
ARE-006          5194.780000 11.100000  0.000000   0.000000   0.000000  
ARE-025          5193.790000 11.800000  0.000000   0.000000   0.000000  
ARE-026          5191.530000 11.000000  0.000000   0.000000   0.000000  
ARE-027          5190.510000 11.000000  0.000000   0.000000   0.000000  
ARE-029          5187.370000 11.650000  0.000000   0.000000   0.000000  
ARE-030          5186.360000 11.520000  0.000000   0.000000   0.000000  
ARE-042          5180.630000 11.400000  0.000000   0.000000   0.000000  
ARE-043          5177.650000 10.180000  0.000000   0.000000   0.000000  
ARE-054          5176.080000 11.150000  0.000000   0.000000   0.000000  
ARE-055          5174.640000 11.590000  0.000000   0.000000   0.000000  
ARE-057          5172.670000 12.680000  0.000000   0.000000   0.000000  
ARE-115          5170.400000 17.420000  0.000000   0.000000   0.000000  
ARE-116          5168.770000 17.690000  0.000000   0.000000   0.000000  
ARE-117          5168.020000 17.780000  0.000000   0.000000   0.000000  
ARE-118          5167.220000 13.130000  0.000000   0.000000   0.000000  
ARE-119          5166.690000 9.910000   0.000000   0.000000   0.000000  
ARE-120          5166.250000 10.120000  0.000000   0.000000   0.000000  
ARE-121          5164.880000 7.790000   0.000000   0.000000   0.000000  
ARE-122          5163.820000 4.970000   0.000000   0.000000   0.000000  
ARE-123          5163.280000 7.320000   0.000000   0.000000   0.000000  
ARE-124          5162.790000 5.800000   0.000000   0.000000   0.000000  
ARE-125          5156.080000 9.970000   0.000000   0.000000   0.000000  
ARE-126          5153.800000 14.900000  0.000000   0.000000   0.000000  
ARE-127          5149.840000 9.700000   0.000000   0.000000   0.000000  
ARE-128          5147.910000 9.500000   0.000000   0.000000   0.000000  
ARE-129          5140.990000 9.360000   0.000000   0.000000   0.000000  
ARE-130          5137.310000 9.430000   0.000000   0.000000   0.000000  
ARE-131          5125.610000 9.080000   0.000000   0.000000   0.000000  
ARE-132          5122.770000 7.880000   0.000000   0.000000   0.000000  
ARE-133          5119.570000 7.950000   0.000000   0.000000   0.000000  
ARE-134          5109.320000 9.500000   0.000000   0.000000   0.000000  
ARE-135          5101.140000 11.120000  0.000000   0.000000   0.000000  
ARE-136          5098.380000 13.050000  0.000000   0.000000   0.000000  
ARE-137          5091.840000 13.060000  0.000000   0.000000   0.000000  
ARE-138          5088.650000 11.600000  0.000000   0.000000   0.000000  
ARE-139          5084.170000 11.980000  0.000000   0.000000   0.000000  
ARE-140          5083.370000 14.160000  0.000000   0.000000   0.000000  
ARW-025          5209.270000 11.030000  0.000000   0.000000   0.000000  
ARW-026          5208.190000 11.010000  0.000000   0.000000   0.000000  
ARW-029          5205.810000 10.990000  0.000000   0.000000   0.000000  
ARW-035          5203.960000 10.440000  0.000000   0.000000   0.000000  
ARW-036          5203.250000 10.750000  0.000000   0.000000   0.000000  
ARW-037          5202.170000 8.930000   0.000000   0.000000   0.000000  
ARW-038          5202.100000 10.700000  0.000000   0.000000   0.000000  
ARW-039          5199.040000 10.680000  0.000000   0.000000   0.000000  
CC-1             5009.270000 20.130000  0.000000   0.000000   0.000000  
CC-10            5026.900000 11.600000  0.000000   0.000000   0.000000  
CC-11            5027.800000 18.500000  0.000000   0.000000   0.000000  
CC-12            5028.500000 22.070000  0.000000   0.000000   0.000000  
CC-13            5029.000000 21.800000  0.000000   0.000000   0.000000  
CC-17            5033.130000 21.570000  0.000000   0.000000   0.000000  
CC-17A           5032.510000 22.190000  0.000000   0.000000   0.000000  
CC-18            5034.040000 20.460000  0.000000   0.000000   0.000000  
CC-19            5035.180000 21.620000  0.000000   0.000000   0.000000  
CC-2             5010.870000 19.930000  0.000000   0.000000   0.000000  
CC-20            5036.150000 21.950000  0.000000   0.000000   0.000000  
CC-21            5037.150000 21.450000  0.000000   0.000000   0.000000  
CC-26            5048.900000 13.660000  0.000000   0.000000   0.000000  
CC-26.A          5050.300000 14.230000  0.000000   0.000000   0.000000  
CC-27            5051.900000 15.670000  0.000000   0.000000   0.000000  
CC-28            5053.200000 14.390000  0.000000   0.000000   0.000000  
CC-29            5053.900000 15.400000  0.000000   0.000000   0.000000  
CC-3             5014.170000 17.980000  0.000000   0.000000   0.000000  
CC-30            5054.300000 15.000000  0.000000   0.000000   0.000000  
CC-31            5058.600000 11.800000  0.000000   0.000000   0.000000  
CC-32            5060.400000 11.500000  0.000000   0.000000   0.000000  
CC-33            5064.000000 11.480000  0.000000   0.000000   0.000000  
CC-34            5050.960000 29.340000  0.000000   0.000000   0.000000  
CC-35            5069.200000 14.440000  0.000000   0.000000   0.000000  
CC-35.1          5071.600000 12.020000  0.000000   0.000000   0.000000  
CC-36            5071.260000 11.390000  0.000000   0.000000   0.000000  
CC-37            5074.750000 11.020000  0.000000   0.000000   0.000000  
CC-37.1          5075.900000 9.990000   0.000000   0.000000   0.000000  
CC-38            5078.600000 13.700000  0.000000   0.000000   0.000000  
CC-38.1          5081.410000 12.510000  0.000000   0.000000   0.000000  
CC-39            5084.740000 13.260000  0.000000   0.000000   0.000000  
CC-4             5017.330000 15.620000  0.000000   0.000000   0.000000  
CC-40            5086.880000 10.020000  0.000000   0.000000   0.000000  
CC-41            5089.800000 11.440000  0.000000   0.000000   0.000000  
CC-42            5094.380000 11.370000  0.000000   0.000000   0.000000  
CC-43            5102.350000 14.090000  0.000000   0.000000   0.000000  
CC-5             5021.570000 11.910000  0.000000   0.000000   0.000000  
CC-6             5023.110000 13.120000  0.000000   0.000000   0.000000  
CC-7             5024.470000 23.130000  0.000000   0.000000   0.000000  
CC-8             5025.570000 9.900000   0.000000   0.000000   0.000000  
CC-9             5026.250000 13.550000  0.000000   0.000000   0.000000  
CC1-01           5106.190000 15.660000  0.000000   0.000000   0.000000  
CC1-02           5107.880000 12.430000  0.000000   0.000000   0.000000  
CC1-03           5121.600000 12.520000  0.000000   0.000000   0.000000  
CC1-04           5127.350000 13.200000  0.000000   0.000000   0.000000  
CC1-05           5154.910000 12.050000  0.000000   0.000000   0.000000  
CC2-00           5104.270000 4.400000   0.000000   0.000000   0.000000  
CC2-01           5105.110000 2.500000   0.000000   0.000000   0.000000  
CC2-02           5106.090000 12.120000  0.000000   0.000000   0.000000  
CC2-03           5125.760000 12.830000  0.000000   0.000000   0.000000  
CC2-04           5139.640000 10.070000  0.000000   0.000000   0.000000  
CC2-05           5155.100000 4.090000   0.000000   0.000000   0.000000  
CC2-06           5162.100000 9.880000   0.000000   0.000000   0.000000  
CC2-07           5165.200000 11.970000  0.000000   0.000000   0.000000  
CC2-08           5180.410000 13.230000  0.000000   0.000000   0.000000  
CC2-09           5196.670000 11.300000  0.000000   0.000000   0.000000  
CC2-10           5127.840000 12.350000  0.000000   0.000000   0.000000  
CC2-11           5141.040000 15.230000  0.000000   0.000000   0.000000  
CC2-12           5142.950000 8.040000   0.000000   0.000000   0.000000  
CC2-13           5156.630000 9.840000   0.000000   0.000000   0.000000  
CC2-14           5160.450000 6.580000   0.000000   0.000000   0.000000  
CC3-01           5144.750000 11.130000  0.000000   0.000000   0.000000  
CC3-02           5150.990000 10.590000  0.000000   0.000000   0.000000  
CC3-03           5158.150000 10.160000  0.000000   0.000000   0.000000  
CC3-04           5178.310000 12.970000  0.000000   0.000000   0.000000  
CC3-05           5195.700000 11.950000  0.000000   0.000000   0.000000  
CC4-01           5115.500000 11.870000  0.000000   0.000000   0.000000  
CC4-02           5121.480000 12.150000  0.000000   0.000000   0.000000  
CC4-03           5139.230000 11.070000  0.000000   0.000000   0.000000  
CC5-01           5086.110000 11.430000  0.000000   0.000000   0.000000  
CC5-02           5097.670000 12.340000  0.000000   0.000000   0.000000  
CC5-03           5126.590000 10.160000  0.000000   0.000000   0.000000  
CCM-01           5095.220000 13.190000  0.000000   0.000000   0.000000  
CCM-02           5098.960000 11.660000  0.000000   0.000000   0.000000  
CCM-03           5104.560000 10.700000  0.000000   0.000000   0.000000  
CCM-04           5106.450000 10.750000  0.000000   0.000000   0.000000  
CCM-06           5109.100000 11.280000  0.000000   0.000000   0.000000  
CCM-07           5110.340000 11.450000  0.000000   0.000000   0.000000  
CCM-08           5111.410000 11.340000  0.000000   0.000000   0.000000  
CCM-09           5113.360000 10.440000  0.000000   0.000000   0.000000  
CCM-10           5116.010000 11.820000  0.000000   0.000000   0.000000  
CCM-11           5124.580000 11.850000  0.000000   0.000000   0.000000  
CCM-13           5133.510000 11.850000  0.000000   0.000000   0.000000  
CCM-14           5139.340000 11.920000  0.000000   0.000000   0.000000  
CCM-15           5142.660000 8.950000   0.000000   0.000000   0.000000  
CFE-012          5091.840000 11.900000  0.000000   0.000000   0.000000  
CFE-013          5089.540000 12.000000  0.000000   0.000000   0.000000  
CFE-016          5085.300000 12.210000  0.000000   0.000000   0.000000  
CFE-017          5084.210000 11.300000  0.000000   0.000000   0.000000  
CFE-022          5083.290000 7.110000   0.000000   0.000000   0.000000  
CFE-023          5082.060000 5.740000   0.000000   0.000000   0.000000  
CFE-023A         5079.700000 6.800000   0.000000   0.000000   0.000000  
CFW-006          5113.450000 14.650000  0.000000   0.000000   0.000000  
CFW-007          5111.360000 16.340000  0.000000   0.000000   0.000000  
CFW-012          5106.080000 13.520000  0.000000   0.000000   0.000000  
CFW-013          5102.400000 13.300000  0.000000   0.000000   0.000000  
CFW-016          5100.680000 10.320000  0.000000   0.000000   0.000000  
CFW-029          5097.440000 7.360000   0.000000   0.000000   0.000000  
CFW-030          5094.760000 7.240000   0.000000   0.000000   0.000000  
CFW-031          5093.320000 7.380000   0.000000   0.000000   0.000000  
CFW-032          5092.080000 12.920000  0.000000   0.000000   0.000000  
CFW-033          5090.930000 14.370000  0.000000   0.000000   0.000000  
CFW-048          5106.890000 11.110000  0.000000   0.000000   0.000000  
CFW-049          5106.310000 10.500000  0.000000   0.000000   0.000000  
CFW-058          5105.520000 10.550000  0.000000   0.000000   0.000000  
CFW-059          5104.960000 10.510000  0.000000   0.000000   0.000000  
CFW-060          5103.610000 10.510000  0.000000   0.000000   0.000000  
CFW-061          5100.640000 10.600000  0.000000   0.000000   0.000000  
CFW-062          5099.890000 10.000000  0.000000   0.000000   0.000000  
CFW-067          5099.550000 10.280000  0.000000   0.000000   0.000000  
CFW-068          5098.790000 11.990000  0.000000   0.000000   0.000000  
CFW-069          5097.120000 11.990000  0.000000   0.000000   0.000000  
CFW-070          5120.500000 10.880000  0.000000   0.000000   0.000000  
CFW-071          5114.920000 7.840000   0.000000   0.000000   0.000000  
CFW-073          5113.170000 10.630000  0.000000   0.000000   0.000000  
CFW-074          5111.500000 9.500000   0.000000   0.000000   0.000000  
CFW-075          5111.000000 7.430000   0.000000   0.000000   0.000000  
CL-001           5088.660000 11.380000  0.000000   0.000000   0.000000  
CL-002           5089.500000 13.130000  0.000000   0.000000   0.000000  
CL-003           5095.660000 14.780000  0.000000   0.000000   0.000000  
CL-004           5109.100000 12.030000  0.000000   0.000000   0.000000  
CL-005           5118.280000 12.010000  0.000000   0.000000   0.000000  
CL-006           5092.380000 13.890000  0.000000   0.000000   0.000000  
CL-007           5095.650000 10.290000  0.000000   0.000000   0.000000  
CL-008           5097.610000 12.920000  0.000000   0.000000   0.000000  
COM-1            5048.600000 11.940000  0.000000   0.000000   0.000000  
COM-10           5091.500000 11.130000  0.000000   0.000000   0.000000  
COM-11           5101.370000 11.660000  0.000000   0.000000   0.000000  
COM-12           5114.870000 13.090000  0.000000   0.000000   0.000000  
COM-2            5063.380000 10.480000  0.000000   0.000000   0.000000  
COM-3            5069.430000 10.560000  0.000000   0.000000   0.000000  
COM-4            5088.220000 12.470000  0.000000   0.000000   0.000000  
COM-5            5137.170000 13.390000  0.000000   0.000000   0.000000  
COM-6            5147.760000 11.200000  0.000000   0.000000   0.000000  
COM-7            5060.820000 13.170000  0.000000   0.000000   0.000000  
COM-8            5079.680000 13.860000  0.000000   0.000000   0.000000  
COM-9            5071.460000 12.010000  0.000000   0.000000   0.000000  
COM-9A           5067.360000 12.370000  0.000000   0.000000   0.000000  
CR-001           4998.530000 15.750000  0.000000   0.000000   0.000000  
CR-002           5002.620000 14.050000  0.000000   0.000000   0.000000  
CR-003           5014.680000 12.790000  0.000000   0.000000   0.000000  
CR-004           5029.510000 11.870000  0.000000   0.000000   0.000000  
CR-005           5041.060000 9.900000   0.000000   0.000000   0.000000  
CR-007           5022.750000 13.340000  0.000000   0.000000   0.000000  
CR-008           5027.450000 14.610000  0.000000   0.000000   0.000000  
CR-009           5034.180000 14.450000  0.000000   0.000000   0.000000  
CR-010           5037.810000 15.150000  0.000000   0.000000   0.000000  
CR-011           5043.830000 14.970000  0.000000   0.000000   0.000000  
CR-012           5049.650000 14.820000  0.000000   0.000000   0.000000  
CR-013           5058.870000 12.980000  0.000000   0.000000   0.000000  
CR-015           5005.240000 13.630000  0.000000   0.000000   0.000000  
CR-016           5011.700000 14.450000  0.000000   0.000000   0.000000  
CR-017           5015.400000 13.410000  0.000000   0.000000   0.000000  
CR-018           5017.460000 12.990000  0.000000   0.000000   0.000000  
CR-019           5020.430000 11.230000  0.000000   0.000000   0.000000  
CR-020           5023.330000 10.200000  0.000000   0.000000   0.000000  
CR-021           5026.470000 13.860000  0.000000   0.000000   0.000000  
CR-022           5028.150000 15.750000  0.000000   0.000000   0.000000  
CR-023           5021.900000 11.800000  0.000000   0.000000   0.000000  
CR-024           5027.200000 9.810000   0.000000   0.000000   0.000000  
CR-025           5031.420000 9.690000   0.000000   0.000000   0.000000  
CR-026           5033.350000 11.770000  0.000000   0.000000   0.000000  
CR-027           5048.660000 9.940000   0.000000   0.000000   0.000000  
CR-028           5060.490000 10.050000  0.000000   0.000000   0.000000  
CR-030           4988.750000 13.720000  0.000000   0.000000   0.000000  
CR-031           5003.910000 16.040000  0.000000   0.000000   0.000000  
CR-032           5012.110000 13.030000  0.000000   0.000000   0.000000  
CR-040           5000.000000 14.330000  0.000000   0.000000   0.000000  
CR-041           5000.470000 28.270000  0.000000   0.000000   0.000000  
CR-042           5029.560000 10.110000  0.000000   0.000000   0.000000  
CR-043           5037.730000 9.880000   0.000000   0.000000   0.000000  
CR-044           5043.580000 9.050000   0.000000   0.000000   0.000000  
CR-045           5052.210000 11.610000  0.000000   0.000000   0.000000  
CS-2             5046.680000 18.520000  0.000000   0.000000   0.000000  
CS-2A            5046.090000 19.380000  0.000000   0.000000   0.000000  
EH-1             5132.790000 14.190000  0.000000   0.000000   0.000000  
EH-2             5130.840000 11.880000  0.000000   0.000000   0.000000  
GV-10C           5026.130000 11.370000  0.000000   0.000000   0.000000  
GV-10F           5064.520000 11.930000  0.000000   0.000000   0.000000  
GV-11C           5026.710000 9.130000   0.000000   0.000000   0.000000  
GV-11F           5063.700000 12.010000  0.000000   0.000000   0.000000  
GV-12C           5027.780000 11.180000  0.000000   0.000000   0.000000  
GV-12F           5063.100000 11.960000  0.000000   0.000000   0.000000  
GV-13C           5028.740000 12.780000  0.000000   0.000000   0.000000  
GV-13F           5059.080000 12.050000  0.000000   0.000000   0.000000  
GV-14C           5029.430000 14.340000  0.000000   0.000000   0.000000  
GV-14F           5056.490000 11.880000  0.000000   0.000000   0.000000  
GV-15C           5029.810000 14.820000  0.000000   0.000000   0.000000  
GV-15F           5054.740000 12.200000  0.000000   0.000000   0.000000  
GV-16C           5030.460000 15.680000  0.000000   0.000000   0.000000  
GV-16F           5049.440000 12.060000  0.000000   0.000000   0.000000  
GV-17C           5030.950000 17.240000  0.000000   0.000000   0.000000  
GV-17F           5047.270000 12.520000  0.000000   0.000000   0.000000  
GV-18C           5031.760000 17.190000  0.000000   0.000000   0.000000  
GV-19C           5036.490000 12.930000  0.000000   0.000000   0.000000  
GV-1C            5026.360000 11.700000  0.000000   0.000000   0.000000  
GV-1C-8          5046.970000 11.960000  0.000000   0.000000   0.000000  
GV-1F            5094.400000 12.040000  0.000000   0.000000   0.000000  
GV-1G            5019.790000 13.780000  0.000000   0.000000   0.000000  
GV-200           5028.900000 3.950000   0.000000   0.000000   0.000000  
GV-20C           5038.700000 12.070000  0.000000   0.000000   0.000000  
GV-210           5037.400000 11.230000  0.000000   0.000000   0.000000  
GV-21C           5042.440000 15.260000  0.000000   0.000000   0.000000  
GV-220           5061.600000 14.390000  0.000000   0.000000   0.000000  
GV-22C           5043.350000 16.150000  0.000000   0.000000   0.000000  
GV-23C           5044.350000 14.360000  0.000000   0.000000   0.000000  
GV-24C           5046.490000 14.190000  0.000000   0.000000   0.000000  
GV-2C            5022.340000 12.050000  0.000000   0.000000   0.000000  
GV-2C-8          5045.570000 12.030000  0.000000   0.000000   0.000000  
GV-2F            5094.020000 13.010000  0.000000   0.000000   0.000000  
GV-2G            5019.430000 14.020000  0.000000   0.000000   0.000000  
GV-3C            5021.750000 12.160000  0.000000   0.000000   0.000000  
GV-3C-8          5042.690000 12.620000  0.000000   0.000000   0.000000  
GV-3F            5090.950000 12.730000  0.000000   0.000000   0.000000  
GV-3G            5017.220000 8.460000   0.000000   0.000000   0.000000  
GV-4C            5020.810000 12.370000  0.000000   0.000000   0.000000  
GV-4C-8          5042.080000 12.610000  0.000000   0.000000   0.000000  
GV-4F            5089.260000 11.980000  0.000000   0.000000   0.000000  
GV-4G            5014.660000 9.160000   0.000000   0.000000   0.000000  
GV-5C-8          5041.220000 12.090000  0.000000   0.000000   0.000000  
GV-5F            5084.360000 11.900000  0.000000   0.000000   0.000000  
GV-5G            5012.810000 18.500000  0.000000   0.000000   0.000000  
GV-6C            5023.950000 10.780000  0.000000   0.000000   0.000000  
GV-6C-8          5040.160000 10.020000  0.000000   0.000000   0.000000  
GV-6F            5080.260000 12.270000  0.000000   0.000000   0.000000  
GV-6G            5011.960000 12.180000  0.000000   0.000000   0.000000  
GV-7C            5024.180000 11.140000  0.000000   0.000000   0.000000  
GV-7F            5075.570000 12.080000  0.000000   0.000000   0.000000  
GV-7G            5011.340000 16.220000  0.000000   0.000000   0.000000  
GV-8C            5024.900000 13.030000  0.000000   0.000000   0.000000  
GV-8F            5071.530000 12.030000  0.000000   0.000000   0.000000  
GV-8G            5010.940000 12.030000  0.000000   0.000000   0.000000  
GV-9C            5025.580000 12.450000  0.000000   0.000000   0.000000  
GV-9F            5068.810000 12.000000  0.000000   0.000000   0.000000  
GV-9G            5010.520000 17.190000  0.000000   0.000000   0.000000  
GV1-01           5095.410000 10.400000  0.000000   0.000000   0.000000  
GV1-02           5100.520000 9.130000   0.000000   0.000000   0.000000  
GV1-03           5105.670000 10.840000  0.000000   0.000000   0.000000  
GV1-04           5116.500000 10.540000  0.000000   0.000000   0.000000  
GV1-04A          5122.530000 9.590000   0.000000   0.000000   0.000000  
GV1-05           5106.620000 11.400000  0.000000   0.000000   0.000000  
GV1-06           5116.900000 9.090000   0.000000   0.000000   0.000000  
GV2-01           5061.760000 9.370000   0.000000   0.000000   0.000000  
GV2-02           5073.150000 7.140000   0.000000   0.000000   0.000000  
GV2-03           5079.930000 5.310000   0.000000   0.000000   0.000000  
GV2-04           5104.030000 11.690000  0.000000   0.000000   0.000000  
GV2-05           5119.240000 11.600000  0.000000   0.000000   0.000000  
GV2-06           5128.130000 7.570000   0.000000   0.000000   0.000000  
GV2-07           5090.410000 5.200000   0.000000   0.000000   0.000000  
GV2-08           5102.370000 6.430000   0.000000   0.000000   0.000000  
GV2-09           5127.400000 10.690000  0.000000   0.000000   0.000000  
GV2-10           5138.010000 9.170000   0.000000   0.000000   0.000000  
GV2-11           5146.380000 9.170000   0.000000   0.000000   0.000000  
GV2-13           5090.000000 16.530000  0.000000   0.000000   0.000000  
GV2-14           5098.220000 9.990000   0.000000   0.000000   0.000000  
GV2-15           5101.680000 13.610000  0.000000   0.000000   0.000000  
GV2-16           5103.000000 5.800000   0.000000   0.000000   0.000000  
GV2-17           5104.940000 8.650000   0.000000   0.000000   0.000000  
GV2-18           5110.710000 8.060000   0.000000   0.000000   0.000000  
GV2-19           5134.840000 7.880000   0.000000   0.000000   0.000000  
GV2-20           5130.460000 8.220000   0.000000   0.000000   0.000000  
GV2-21           5142.940000 8.440000   0.000000   0.000000   0.000000  
GV2-22           5153.210000 11.000000  0.000000   0.000000   0.000000  
GV2-23           5177.410000 9.670000   0.000000   0.000000   0.000000  
GV2-24           5122.730000 8.150000   0.000000   0.000000   0.000000  
GV2-25           5144.130000 9.190000   0.000000   0.000000   0.000000  
GV2-26           5170.630000 12.250000  0.000000   0.000000   0.000000  
GV2-27           5103.360000 8.780000   0.000000   0.000000   0.000000  
GV2-28           5104.990000 13.550000  0.000000   0.000000   0.000000  
GV2-29           5124.340000 9.590000   0.000000   0.000000   0.000000  
GV2-30           5155.560000 12.160000  0.000000   0.000000   0.000000  
GV2-31           5145.180000 7.910000   0.000000   0.000000   0.000000  
GV2-32           5174.980000 10.650000  0.000000   0.000000   0.000000  
GV2-33           5190.170000 10.290000  0.000000   0.000000   0.000000  
GV2-34           5206.500000 11.250000  0.000000   0.000000   0.000000  
GV2-35           5209.170000 15.270000  0.000000   0.000000   0.000000  
GV2-36           5211.360000 1.140000   0.000000   0.000000   0.000000  
GV2-37           5223.370000 14.560000  0.000000   0.000000   0.000000  
HWY52-001        4942.970000 15.830000  0.000000   0.000000   0.000000  
HWY52-002        4949.859000 10.840000  0.000000   0.000000   0.000000  
HWY52-003        4958.580000 7.240000   0.000000   0.000000   0.000000  
HWY52-004        4968.230000 30.230000  0.000000   0.000000   0.000000  
HWY52-005        4971.620000 28.610000  0.000000   0.000000   0.000000  
HWY52-006        4973.750000 5.290000   0.000000   0.000000   0.000000  
HWY52-007        4983.710000 12.520000  0.000000   0.000000   0.000000  
HWY52-008        4987.460000 9.820000   0.000000   0.000000   0.000000  
HWY52-009        4992.400000 10.390000  0.000000   0.000000   0.000000  
; Amended Manhole
HWY52-AM-1       4995.070000 12.930000  0.000000   0.000000   0.000000  
; Amended Manhole
HWY52-AM-2       4997.570000 19.430000  0.000000   0.000000   0.000000  
; Amended Manhole
HWY52-AM-3       5000.170000 21.830000  0.000000   0.000000   0.000000  
IN-020           5051.630000 14.250000  0.000000   0.000000   0.000000  
IN-021           5062.220000 15.380000  0.000000   0.000000   0.000000  