[TITLE]
;;Project Title/Notes

[OPTIONS]
;;Option             Value
FLOW_UNITS           MGD
INFILTRATION         HORTON
FLOW_ROUTING         DYNWAVE
LINK_OFFSETS         DEPTH
MIN_SLOPE            0
ALLOW_PONDING        NO
SKIP_STEADY_STATE    NO

START_DATE           07/17/2017
START_TIME           00:00:00
REPORT_START_DATE    07/17/2017
REPORT_START_TIME    00:00:00
END_DATE             07/22/2017
END_TIME             23:00:00
SWEEP_START          01/01
SWEEP_END            01/01
DRY_DAYS             5.000000
REPORT_STEP          00:05:00
WET_STEP             00:05:00
DRY_STEP             01:00:00
ROUTING_STEP         0:00:30 

INERTIAL_DAMPING     NONE
NORMAL_FLOW_LIMITED  BOTH
FORCE_MAIN_EQUATION  H-W
VARIABLE_STEP        0.75
LENGTHENING_STEP     5
MIN_SURFAREA         12.557
MAX_TRIALS           4
HEAD_TOLERANCE       0.005000
SYS_FLOW_TOL         5
LAT_FLOW_TOL         5
MINIMUM_STEP         0
THREADS              1

[EVAPORATION]
;;Data Source    Parameters
;;-------------- ----------------
CONSTANT         0.0
DRY_ONLY         NO

[JUNCTIONS]
;;Name           Elevation  MaxDepth   InitDepth  SurDepth   Aponded   
;;-------------- ---------- ---------- ---------- ---------- ----------
01-059           748.555000 22.700000  0.000000   0.000000   0.000000  
01-060           749.000000 21.569000  0.000000   0.000000   0.000000  
01-061           749.903000 23.080000  0.000000   0.000000   0.000000  
01-062           754.147000 18.400000  0.000000   0.000000   0.000000  
01-063           754.684000 22.100000  0.000000   0.000000   0.000000  
01-064           755.616000 18.700000  0.000000   0.000000   0.000000  
01-065           755.793000 12.630000  0.000000   0.000000   0.000000  
01-066           756.132000 14.630000  0.000000   0.000000   0.000000  
01-067           756.565000 15.450000  0.000000   0.000000   0.000000  
01-068           756.758000 15.450000  0.000000   0.000000   0.000000  
01-069           756.962000 7.630000   0.000000   0.000000   0.000000  
01-070           757.441000 7.170000   0.000000   0.000000   0.000000  
01-071           758.045000 11.950000  0.000000   0.000000   0.000000  
01-072           758.695000 14.390000  0.000000   0.000000   0.000000  
01-073           758.874000 6.130000   0.000000   0.000000   0.000000  
01-074           759.252000 5.500000   0.000000   0.000000   0.000000  
01-075           759.716000 5.300000   0.000000   0.000000   0.000000  
01-076           760.138000 9.800000   0.000000   0.000000   0.000000  
01-077           761.769000 12.630000  0.000000   0.000000   0.000000  
02-001           759.390015 19.000000  0.000000   0.000000   0.000000  
02-002           759.700012 10.600000  0.000000   0.000000   0.000000  
02-003           761.590027 10.400000  0.000000   0.000000   0.000000  
02-004           762.729980 17.799999  0.000000   0.000000   0.000000  
02-005           763.000000 12.578000  0.000000   0.000000   0.000000  
02-006           758.140015 12.400000  0.000000   0.000000   0.000000  
02-007           757.489990 14.000000  0.000000   0.000000   0.000000  
02-007A          755.789000 25.300000  0.000000   0.000000   0.000000  
02-008           763.729980 12.000000  0.000000   0.000000   0.000000  
02-008A          763.729980 12.000000  0.000000   0.000000   0.000000  
02-011           769.270020 11.400000  0.000000   0.000000   0.000000  
02-026           774.640015 11.000000  0.000000   0.000000   0.000000  
02-027           794.979980 26.100000  0.000000   0.000000   0.000000  
02-028           798.289978 27.000000  0.000000   0.000000   0.000000  
02-034           803.119995 25.000000  0.000000   0.000000   0.000000  
02-035           805.900024 15.000000  0.000000   0.000000   0.000000  
02-040           808.250000 20.200001  0.000000   0.000000   0.000000  
02-041           810.340027 19.200001  0.000000   0.000000   0.000000  
02-080           763.471000 11.710000  0.000000   0.000000   0.000000  
03-001           809.650024 21.400000  0.000000   0.000000   0.000000  
03-002           810.419983 21.100000  0.000000   0.000000   0.000000  
03-002A          825.179993 8.800000   0.000000   0.000000   0.000000  
03-003           825.539978 10.010022  0.000000   0.000000   0.000000  
03-004           810.929993 20.200001  0.000000   0.000000   0.000000  
03-006           811.100000 17.920020  0.000000   0.000000   0.000000  
03-007           811.619995 15.300000  0.000000   0.000000   0.000000  
03-008           812.150024 13.000000  0.000000   0.000000   0.000000  
03-013           812.719971 12.000000  0.000000   0.000000   0.000000  
03-014           813.119995 12.600000  0.000000   0.000000   0.000000  
03-015           813.460022 12.000000  0.000000   0.000000   0.000000  
03-016           813.940002 12.400000  0.000000   0.000000   0.000000  
03-018           814.760010 11.200000  0.000000   0.000000   0.000000  
03-019           815.239990 10.800000  0.000000   0.000000   0.000000  
03-020           815.849976 10.600000  0.000000   0.000000   0.000000  
03-021           816.500000 14.000000  0.000000   0.000000   0.000000  
03-022           816.919983 13.100000  0.000000   0.000000   0.000000  
03-023           817.229980 8.800000   0.000000   0.000000   0.000000  
03-024           817.849976 11.000000  0.000000   0.000000   0.000000  
03-025           818.380005 8.600000   0.000000   0.000000   0.000000  
03-026           818.909973 7.100000   0.000000   0.000000   0.000000  
03-027           819.450012 9.500000   0.000000   0.000000   0.000000  
03-028           819.989990 8.600000   0.000000   0.000000   0.000000  
03-031           820.284973 8.750000   0.000000   0.000000   0.000000  
03-035           814.739990 10.300000  0.000000   0.000000   0.000000  
03-036           815.159973 10.700000  0.000000   0.000000   0.000000  
03-037           815.580017 11.000000  0.000000   0.000000   0.000000  
03-038           816.059998 10.400000  0.000000   0.000000   0.000000  
03-039           816.349976 9.600000   0.000000   0.000000   0.000000  
03-040           816.469971 9.500000   0.000000   0.000000   0.000000  
03-041           817.190002 8.800000   0.000000   0.000000   0.000000  
03-042           817.419983 17.600000  0.000000   0.000000   0.000000  
03-043           817.940002 13.000000  0.000000   0.000000   0.000000  
03-044           818.210022 12.300000  0.000000   0.000000   0.000000  
03-045           818.460022 11.700000  0.000000   0.000000   0.000000  
03-046           818.520020 11.000000  0.000000   0.000000   0.000000  
03-047           818.570007 10.400000  0.000000   0.000000   0.000000  
03-057           819.099976 7.200000   0.000000   0.000000   0.000000  
03-060           811.039978 19.900000  0.000000   0.000000   0.000000  
03-061           819.299988 14.400000  0.000000   0.000000   0.000000  
03-062           819.500000 15.900000  0.000000   0.000000   0.000000  
03-063           819.830017 17.299999  0.000000   0.000000   0.000000  
03-065C          820.500000 18.299999  0.000000   0.000000   0.000000  
; New Junction
03-067           819.371000 6.629000   0.000000   0.000000   0.000000  
03-069           819.200000 10.800000  0.000000   0.000000   0.000000  
03-086           821.970000 15.350000  0.000000   0.000000   0.000000  
03-087           832.520000 8.220000   0.000000   0.000000   0.000000  
03-088           844.830000 7.980000   0.000000   0.000000   0.000000  
03-089           860.210000 7.240000   0.000000   0.000000   0.000000  
03-090           860.680000 7.450000   0.000000   0.000000   0.000000  
03-191           829.690002 14.310000  0.000000   0.000000   0.000000  
03-192           830.400024 22.070000  0.000000   0.000000   0.000000  
03-198           830.979980 17.930000  0.000000   0.000000   0.000000  
03-199           831.580017 11.830000  0.000000   0.000000   0.000000  
03-199A          831.729980 10.210000  0.000000   0.000000   0.000000  
03-200           814.182000 11.617975  0.000000   0.000000   0.000000  
03-201           814.929993 10.600000  0.000000   0.000000   0.000000  
03-202           815.469971 9.500000   0.000000   0.000000   0.000000  
03-203           816.030029 10.000000  0.000000   0.000000   0.000000  
03-210           816.530029 8.500000   0.000000   0.000000   0.000000  
03-211           817.780029 9.400000   0.000000   0.000000   0.000000  
03-212           819.030029 9.200000   0.000000   0.000000   0.000000  
03-213           820.280029 11.900000  0.000000   0.000000   0.000000  
03-214           821.500000 14.100000  0.000000   0.000000   0.000000  
03-215           822.719971 12.200000  0.000000   0.000000   0.000000  
03-216           823.940002 13.400000  0.000000   0.000000   0.000000  
03-217           825.359985 9.800000   0.000000   0.000000   0.000000  
03-218           826.780029 9.800000   0.000000   0.000000   0.000000  
03-219           828.200012 12.100000  0.000000   0.000000   0.000000  
03-220           829.450012 14.000000  0.000000   0.000000   0.000000  
03-230           816.000000 14.000000  0.000000   0.000000   0.000000  
03-252           820.367004 8.840000   0.000000   0.000000   0.000000  
03-253           820.846985 9.450000   0.000000   0.000000   0.000000  
03-254           821.328003 10.050000  0.000000   0.000000   0.000000  
03-255           822.000000 10.200000  0.000000   0.000000   0.000000  
03-261           862.270000 7.520000   0.000000   0.000000   0.000000  
03-262           870.097000 28.770000  0.000000   0.000000   0.000000  
03-263           897.500000 22.200000  0.000000   0.000000   0.000000  
03-264           916.655000 16.910000  0.000000   0.000000   0.000000  
03-265           925.709000 12.130000  0.000000   0.000000   0.000000  
03-266           944.620000 10.060000  0.000000   0.000000   0.000000  
03-287           954.420000 17.240000  0.000000   0.000000   0.000000  
03-288           961.240000 19.040000  0.000000   0.000000   0.000000  
03-289           967.070000 19.760000  0.000000   0.000000   0.000000  
03-290           968.420000 21.280000  0.000000   0.000000   0.000000  
03-291           968.680000 24.850000  0.000000   0.000000   0.000000  
03-292           969.280000 27.900000  0.000000   0.000000   0.000000  
03-293           969.890000 32.110000  0.000000   0.000000   0.000000  
03-294           970.510000 27.330000  0.000000   0.000000   0.000000  
03-295           971.130000 25.270000  0.000000   0.000000   0.000000  
; New Junction
03-295X          971.235000 25.265000  0.000000   0.000000   0.000000  
04-001           809.200012 16.600000  0.000000   0.000000   0.000000  
04-014           826.159973 16.900000  0.000000   0.000000   0.000000  
04-023           821.213000 22.370000  0.000000   0.000000   0.000000  
04-027           839.020020 11.700000  0.000000   0.000000   0.000000  
04-042           822.260010 23.000000  0.000000   0.000000   0.000000  
04-043           821.760010 23.600000  0.000000   0.000000   0.000000  
04-045           841.291000 13.570000  0.000000   0.000000   0.000000  
04-045A          841.240000 13.670000  0.000000   0.000000   0.000000  
05-018           849.440002 11.800000  0.000000   0.000000   0.000000  
05-034           850.299988 12.500000  0.000000   0.000000   0.000000  
05-035           853.700012 12.300000  0.000000   0.000000   0.000000  
05-036           856.940002 14.600000  0.000000   0.000000   0.000000  
06-001           805.179993 8.300000   0.000000   0.000000   0.000000  
06-001A          809.590027 9.000000   0.000000   0.000000   0.000000  
06-003           810.349976 9.100000   0.000000   0.000000   0.000000  
06-005           811.770020 10.400000  0.000000   0.000000   0.000000  
07-003           779.530029 16.600000  0.000000   0.000000   0.000000  
07-004           785.190002 11.100000  0.000000   0.000000   0.000000  
07-005           792.159973 8.100000   0.000000   0.000000   0.000000  
; New Junction
07-007A          804.140000 5.860000   0.000000   0.000000   0.000000  
07-039           816.452000 13.400000  0.000000   0.000000   0.000000  
07-040           846.599976 8.000000   0.000000   0.000000   0.000000  
07-042           862.120000 9.780000   0.000000   0.000000   0.000000  
07-043           781.799988 11.200000  0.000000   0.000000   0.000000  
07-080           768.349000 16.250000  0.000000   0.000000   0.000000  
08-001           766.599976 16.900000  0.000000   0.000000   0.000000  
08-002           763.590027 17.000000  0.000000   0.000000   0.000000  
08-003           763.570007 17.000000  0.000000   0.000000   0.000000  
08-003A          763.369995 16.500000  0.000000   0.000000   0.000000  
08-003B          762.869995 17.000000  0.000000   0.000000   0.000000  
08-037           765.099976 14.700000  0.000000   0.000000   0.000000  
08-038           766.000000 13.000000  0.000000   0.000000   0.000000  
08-040           767.690002 12.000000  0.000000   0.000000   0.000000  
08-041           767.969971 12.800000  0.000000   0.000000   0.000000  
08-041A          767.799988 13.000000  0.000000   0.000000   0.000000  
08-043           770.190002 13.000000  0.000000   0.000000   0.000000  
08-045           771.500000 13.300000  0.000000   0.000000   0.000000  
08-046           772.570007 13.700000  0.000000   0.000000   0.000000  
08-049           775.010010 16.900000  0.000000   0.000000   0.000000  
08-051           778.419983 16.000000  0.000000   0.000000   0.000000  
08-061           803.820007 14.400000  0.000000   0.000000   0.000000  
08-066           814.070007 10.100000  0.000000   0.000000   0.000000  
08-067           818.909973 6.800000   0.000000   0.000000   0.000000  
08-068           822.469971 8.400000   0.000000   0.000000   0.000000  
08-069           830.200012 7.800000   0.000000   0.000000   0.000000  
08-070           833.059998 7.300000   0.000000   0.000000   0.000000  
08-071           833.950012 9.300000   0.000000   0.000000   0.000000  
08-072           835.500000 11.500000  0.000000   0.000000   0.000000  
08-073           838.500000 11.900000  0.000000   0.000000   0.000000  
08-080           771.000000 12.500000  0.000000   0.000000   0.000000  
08-081           771.250000 12.250012  0.000000   0.000000   0.000000  
08-084           771.500000 12.900000  0.000000   0.000000   0.000000  
08-085           774.549988 12.300000  0.000000   0.000000   0.000000  
08-086           777.349976 13.000000  0.000000   0.000000   0.000000  
08-087           780.099976 13.700000  0.000000   0.000000   0.000000  
08-088           783.200012 14.900000  0.000000   0.000000   0.000000  
08-090           785.330017 14.200000  0.000000   0.000000   0.000000  
08-091           789.760000 9.400009   0.000000   0.000000   0.000000  
08-093           799.000000 11.500000  0.000000   0.000000   0.000000  
08-094           804.520020 13.300000  0.000000   0.000000   0.000000  
08-095           812.729980 6.200000   0.000000   0.000000   0.000000  
08-114           767.000000 16.500000  0.000000   0.000000   0.000000  
09-001           755.750000 21.776000  0.000000   0.000000   0.000000  
09-001A          752.500000 25.719000  0.000000   0.000000   0.000000  
09-002           752.630005 20.700001  0.000000   0.000000   0.000000  
09-003           752.820007 20.400000  0.000000   0.000000   0.000000  
09-004           753.190002 20.500000  0.000000   0.000000   0.000000  
09-005           753.729980 19.799999  0.000000   0.000000   0.000000  
09-005A          753.930000 23.949000  0.000000   0.000000   0.000000  
09-006           754.140015 17.900000  0.000000   0.000000   0.000000  
09-007           754.500000 15.500000  0.000000   0.000000   0.000000  
09-008           754.869995 15.100000  0.000000   0.000000   0.000000  
09-009           755.390015 14.600000  0.000000   0.000000   0.000000  
09-010           755.900024 20.100000  0.000000   0.000000   0.000000  
09-011           756.239990 23.000000  0.000000   0.000000   0.000000  
; New Junction
09-011A          756.000000 20.000000  0.000000   0.000000   0.000000  
09-012A          756.349976 21.900000  0.000000   0.000000   0.000000  
09-026           766.212000 14.050000  0.000000   0.000000   0.000000  
09-033           749.038000 30.570000  0.000000   0.000000   0.000000  
09-034           749.000000 31.000000  0.000000   0.000000   0.000000  
09-036           749.719000 28.500000  0.000000   0.000000   0.000000  
09-037           750.169983 27.600000  0.000000   0.000000   0.000000  
; New Junction
09-038           750.210000 27.560000  0.000000   0.000000   0.000000  
09-039           750.210022 27.500000  0.000000   0.000000   0.000000  
09-041           750.799988 27.000000  0.000000   0.000000   0.000000  
09-042           751.239990 23.799999  0.000000   0.000000   0.000000  
09-043           751.849976 20.200001  0.000000   0.000000   0.000000  
09-044           752.373000 20.120000  0.000000   0.000000   0.000000  
09-045           752.609985 20.500000  0.000000   0.000000   0.000000  
09-046           752.830017 20.200001  0.000000   0.000000   0.000000  
09-047           752.979980 19.500000  0.000000   0.000000   0.000000  
09-048           753.200012 19.000000  0.000000   0.000000   0.000000  
09-048A          753.349976 18.200001  0.000000   0.000000   0.000000  
09-049           753.550000 16.470000  0.000000   0.000000   0.000000  
09-050           753.730000 18.270000  0.000000   0.000000   0.000000  
09-051           760.000000 20.000000  0.000000   0.000000   0.000000  
09-088           756.909973 20.799999  0.000000   0.000000   0.000000  
09-089           757.804000 21.200000  0.000000   0.000000   0.000000  
09-093           760.440002 21.299999  0.000000   0.000000   0.000000  
09-094           762.515000 18.485000  0.000000   0.000000   0.000000  
09-096           771.559998 21.799999  0.000000   0.000000   0.000000  
09-097           774.260010 19.799999  0.000000   0.000000   0.000000  
09-098           777.739990 19.200001  0.000000   0.000000   0.000000  
09-099           779.760010 19.500000  0.000000   0.000000   0.000000  
09-121           762.250000 17.600000  0.000000   0.000000   0.000000  
09-133           765.349976 17.100000  0.000000   0.000000   0.000000  
09-135           758.239990 25.200001  0.000000   0.000000   0.000000  
09-136           757.760000 23.000000  0.000000   0.000000   0.000000  
09-138           757.229980 22.500000  0.000000   0.000000   0.000000  
09-139           756.890015 19.200001  0.000000   0.000000   0.000000  
09-140           756.817000 18.910000  0.000000   0.000000   0.000000  
09-203           767.349976 10.000000  0.000000   0.000000   0.000000  
09-204           769.284000 8.450000   0.000000   0.000000   0.000000  
09-205           770.100000 9.180000   0.000000   0.000000   0.000000  
09-206           748.940000 31.060000  0.000000   0.000000   0.000000  
10-013           984.000000 14.030000  0.000000   0.000000   0.000000  
10-014           984.409973 11.190000  0.000000   0.000000   0.000000  
10-015           984.729980 12.720000  0.000000   0.000000   0.000000  
10-018           984.800000 14.340027  0.000000   0.000000   0.000000  
10-019           984.900024 13.380000  0.000000   0.000000   0.000000  
10-022           985.780029 12.330000  0.000000   0.000000   0.000000  
10-023           985.705000 13.490000  0.000000   0.000000   0.000000  
10-047           976.041000 19.730000  0.000000   0.000000   0.000000  
10-053           976.489990 18.290001  0.000000   0.000000   0.000000  
10-055           976.820007 9.700000   0.000000   0.000000   0.000000  
10-056           977.000000 11.600000  0.000000   0.000000   0.000000  
10-057           978.058000 15.401973  0.000000   0.000000   0.000000  
10-058           978.859000 12.390000  0.000000   0.000000   0.000000  
10-061           980.200012 10.600000  0.000000   0.000000   0.000000  
10-062           980.679993 11.800000  0.000000   0.000000   0.000000  
10-101           864.489990 11.530000  0.000000   0.000000   0.000000  
10-102           876.758000 11.670000  0.000000   0.000000   0.000000  
10-103           909.320007 12.060000  0.000000   0.000000   0.000000  
10-104           918.239990 12.060000  0.000000   0.000000   0.000000  
10-105           950.950012 12.060000  0.000000   0.000000   0.000000  
10-107           975.619995 12.500000  0.000000   0.000000   0.000000  
10-108           976.041000 19.548991  0.000000   0.000000   0.000000  
10-109           983.320007 13.020000  0.000000   0.000000   0.000000  
10-110           983.679993 13.660000  0.000000   0.000000   0.000000  
10-111           983.696000 14.923983  0.000000   0.000000   0.000000  
10-113           983.776000 14.373973  0.000000   0.000000   0.000000  
10-114           983.885000 13.635012  0.000000   0.000000   0.000000  
10-115           985.030029 13.820000  0.000000   0.000000   0.000000  
10-117           985.109985 13.940000  0.000000   0.000000   0.000000  
10-118           985.280029 13.030000  0.000000   0.000000   0.000000  
10-119           985.530029 12.360000  0.000000   0.000000   0.000000  
11-001           986.109985 13.530000  0.000000   0.000000   0.000000  
11-007           987.299988 14.000000  0.000000   0.000000   0.000000  
11-023           987.500000 13.200000  0.000000   0.000000   0.000000  
11-023A          987.979980 12.740000  0.000000   0.000000   0.000000  
11-031           988.520020 13.870000  0.000000   0.000000   0.000000  
11-032           989.049988 13.130000  0.000000   0.000000   0.000000  
11-038           989.320007 12.450000  0.000000   0.000000   0.000000  
11-039           990.070007 13.700000  0.000000   0.000000   0.000000  
12-001           983.010000 14.390000  0.000000   0.000000   0.000000  
12-002           983.940000 13.529971  0.000000   0.000000   0.000000  
12-003           983.940002 13.500000  0.000000   0.000000   0.000000  
12-004           984.260010 12.400000  0.000000   0.000000   0.000000  
12-008           984.570007 12.400000  0.000000   0.000000   0.000000  
12-009           986.419983 11.300000  0.000000   0.000000   0.000000  
12-046           982.559998 10.440000  0.000000   0.000000   0.000000  
13-001           917.500000 9.800000   0.000000   0.000000   0.000000  
13-002           918.530029 9.800000   0.000000   0.000000   0.000000  
13-003           920.770020 10.200000  0.000000   0.000000   0.000000  
13-004           922.500000 10.400000  0.000000   0.000000   0.000000  
13-015           924.020000 10.400000  0.000000   0.000000   0.000000  
13-016           926.590027 11.100000  0.000000   0.000000   0.000000  
13-017           928.239990 11.600000  0.000000   0.000000   0.000000  
13-018           932.849976 10.200000  0.000000   0.000000   0.000000  
13-019           939.500000 8.200000   0.000000   0.000000   0.000000  
13-022           940.489990 8.400000   0.000000   0.000000   0.000000  
13-023           943.000000 8.200000   0.000000   0.000000   0.000000  
13-024           946.020020 12.800000  0.000000   0.000000   0.000000  
13-037           947.539978 18.000000  0.000000   0.000000   0.000000  
13-039           948.099976 22.799999  0.000000   0.000000   0.000000  
13-040           955.000000 13.000000  0.000000   0.000000   0.000000  
13-041           959.969971 10.500000  0.000000   0.000000   0.000000  
13-042           962.580017 12.400000  0.000000   0.000000   0.000000  
13-056           981.070007 14.930000  0.000000   0.000000   0.000000  
13-057           981.729980 18.240000  0.000000   0.000000   0.000000  
13-058           982.260010 20.049999  0.000000   0.000000   0.000000  
13-059           972.500000 6.700000   0.000000   0.000000   0.000000  
13-060           974.150024 18.830000  0.000000   0.000000   0.000000  
14-001           982.750000 19.799999  0.000000   0.000000   0.000000  
14-002           982.900024 18.400000  0.000000   0.000000   0.000000  
14-009           983.500000 16.500000  0.000000   0.000000   0.000000  
14-016           983.750000 15.800000  0.000000   0.000000   0.000000  
14-017           984.289978 16.700001  0.000000   0.000000   0.000000  
14-027           984.549988 16.500000  0.000000   0.000000   0.000000  
14-028           985.000000 15.000000  0.000000   0.000000   0.000000  
14-031           986.549988 14.500000  0.000000   0.000000   0.000000  
14-035           986.919983 14.100000  0.000000   0.000000   0.000000  
14-036           987.520020 13.500000  0.000000   0.000000   0.000000  
14-037           988.020020 12.500000  0.000000   0.000000   0.000000  
14-038           988.500000 12.500000  0.000000   0.000000   0.000000  
14-039           989.599976 11.400000  0.000000   0.000000   0.000000  
14-040           989.869995 10.600000  0.000000   0.000000   0.000000  
14-041           990.270020 7.700000   0.000000   0.000000   0.000000  
14-043           990.729980 8.300000   0.000000   0.000000   0.000000  
14-045           991.000000 6.000000   0.000000   0.000000   0.000000  
14-080           988.510010 12.500000  0.000000   0.000000   0.000000  
14-081           989.010010 13.000000  0.000000   0.000000   0.000000  
14-082           990.000000 16.000000  0.000000   0.000000   0.000000  
14-091           991.500000 8.500000   0.000000   0.000000   0.000000  
15-001           948.400024 23.700001  0.000000   0.000000   0.000000  
15-011           948.729980 28.700001  0.000000   0.000000   0.000000  
15-066           949.338000 29.470000  0.000000   0.000000   0.000000  
15-067           949.807000 29.970000  0.000000   0.000000   0.000000  
15-084           968.541000 32.200000  0.000000   0.000000   0.000000  
15-097           968.840027 30.160000  0.000000   0.000000   0.000000  
15-098           969.409973 28.590000  0.000000   0.000000   0.000000  
15-099           969.809998 26.690001  0.000000   0.000000   0.000000  
15-100           970.340027 22.260000  0.000000   0.000000   0.000000  
15-101           979.580017 15.250000  0.000000   0.000000   0.000000  
15-107           969.590027 29.139999  0.000000   0.000000   0.000000  
15-108           969.239990 29.930000  0.000000   0.000000   0.000000  
15-109           970.450012 32.020000  0.000000   0.000000   0.000000  
15-110           970.859985 35.080002  0.000000   0.000000   0.000000  
15-111           971.159973 35.590000  0.000000   0.000000   0.000000  
15-112           971.489990 35.669998  0.000000   0.000000   0.000000  
15-113           971.799988 36.029999  0.000000   0.000000   0.000000  
15-114           972.010010 35.160000  0.000000   0.000000   0.000000  
15-115           972.150024 35.060001  0.000000   0.000000   0.000000  
15-137           972.441000 32.450000  0.000000   0.000000   0.000000  
15-138           972.510000 32.430000  0.000000   0.000000   0.000000  
15-139           973.320000 32.980000  0.000000   0.000000   0.000000  
15-140           974.220000 32.610000  0.000000   0.000000   0.000000  
15-142           974.730000 30.030000  0.000000   0.000000   0.000000  
15-143           975.360000 31.210000  0.000000   0.000000   0.000000  
15-145           975.640000 29.350000  0.000000   0.000000   0.000000  
16-001           841.000000 11.700000  0.000000   0.000000   0.000000  
16-002           845.150024 10.700000  0.000000   0.000000   0.000000  
16-003           848.900024 11.500000  0.000000   0.000000   0.000000  
16-004           859.559998 14.600000  0.000000   0.000000   0.000000  
16-005           875.000000 12.100000  0.000000   0.000000   0.000000  
16-006           885.320007 8.200000   0.000000   0.000000   0.000000  
16-007           891.000000 9.400000   0.000000   0.000000   0.000000  
16-008           897.500000 11.200000  0.000000   0.000000   0.000000  
16-009           906.000000 11.500000  0.000000   0.000000   0.000000  
16-010           916.080017 9.300000   0.000000   0.000000   0.000000  
18-001           821.460022 9.700000   0.000000   0.000000   0.000000  
18-002           830.000000 9.500000   0.000000   0.000000   0.000000  
18-003           835.500000 9.700000   0.000000   0.000000   0.000000  
18-004           843.030029 8.400000   0.000000   0.000000   0.000000  
18-005           864.580017 8.000000   0.000000   0.000000   0.000000  
18-006           865.369995 9.000000   0.000000   0.000000   0.000000  
18-007           874.000000 8.200000   0.000000   0.000000   0.000000  
18-008           886.000000 8.000000   0.000000   0.000000   0.000000  
18-008A          899.909973 11.800000  0.000000   0.000000   0.000000  
18-009           905.020020 10.900000  0.000000   0.000000   0.000000  
18-010           916.039978 10.600000  0.000000   0.000000   0.000000  
18-011           923.239990 15.200000  0.000000   0.000000   0.000000  
18-011A          930.640015 15.300000  0.000000   0.000000   0.000000  
18-012           938.719971 15.500000  0.000000   0.000000   0.000000  
18-013           956.320007 17.200001  0.000000   0.000000   0.000000  
18-014           963.679993 25.600000  0.000000   0.000000   0.000000  
18-015           965.760010 25.600000  0.000000   0.000000   0.000000  
18-016           968.169983 27.299999  0.000000   0.000000   0.000000  
18-017           970.000000 25.600000  0.000000   0.000000   0.000000  
18-018           970.130005 25.200001  0.000000   0.000000   0.000000  
18-019           970.299988 26.400000  0.000000   0.000000   0.000000  
18-020           970.530029 28.900000  0.000000   0.000000   0.000000  
18-021           970.630005 28.700001  0.000000   0.000000   0.000000  
18-022           970.750000 29.600000  0.000000   0.000000   0.000000  
18-023           970.909973 30.700001  0.000000   0.000000   0.000000  
18-024           971.099976 28.700001  0.000000   0.000000   0.000000  
18-025           971.270020 28.600000  0.000000   0.000000   0.000000  
20-001           971.520020 23.500000  0.000000   0.000000   0.000000  
20-002           971.700012 23.100000  0.000000   0.000000   0.000000  