[OPTIONS]
;Option and Files Scenario Set: BASE, Base Simulation Options
FLOW_UNITS	CFS
INFILTRATION	HORTON
FLOW_ROUTING	DYNWAVE
ALLOW_PONDING	YES
DRY_DAYS	5.000000
SKIP_STEADY_STATE 	NO
IGNORE_RAINFALL	NO
IGNORE_SNOWMELT	YES
IGNORE_GROUNDWATER	YES
IGNORE_QUALITY	YES
FORCE_MAIN_EQUATION	H-W
LINK_OFFSETS	DEPTH
MIN_SLOPE	0.000000
START_DATE	06/15/2012
START_TIME	00:00
END_DATE	06/16/2012
END_TIME	00:00
REPORT_START_DATE	06/15/2012
REPORT_START_TIME	00:00
SWEEP_START	01/01
SWEEP_END	12/31
WET_STEP	00:01:00
DRY_STEP	01:00:00
ROUTING_STEP	10
REPORT_STEP	00:05:00
INERTIAL_DAMPING	NONE
VARIABLE_STEP	0.750000
MINIMUM_STEP	0.5
LENGTHENING_STEP	10
MIN_SURFAREA	0.000000
NORMAL_FLOW_LIMITED	BOTH
MAX_TRIALS	4
HEAD_TOLERANCE	0.005000

[FILES]

[RAINGAGES]
; Raingage
RAINGAGE-1	CUMULATIVE	0.100000	1.000000	TIMESERIES	02YR_24HR_SCSII		

[HYDROGRAPHS]

[TEMPERATURE]

[ADJUSTMENTS]

[SUBCATCHMENTS]
; E11137
SUB-10	RAINGAGE-1	E11137	3.802507	43.000000	59.000000	0.005000	0.000000
; E12208
SUB-100	RAINGAGE-1	E12208	1.681960	43.000000	69.000000	0.006000	0.000000
; E12201
SUB-102	RAINGAGE-1	E12201	3.011561	43.000000	161.000000	0.006000	0.000000
; E11188
SUB-104	RAINGAGE-1	E11188	0.696037	43.000000	94.000000	0.009000	0.000000
; E11182
SUB-106	RAINGAGE-1	E11182	1.083384	43.000000	68.000000	0.006000	0.000000
; E12156
SUB-108	RAINGAGE-1	E12156	0.324846	43.000000	70.000000	0.006000	0.000000
; E12155
SUB-110	RAINGAGE-1	E12155	0.099929	43.000000	28.000000	0.005000	0.000000
; E12196
SUB-112	RAINGAGE-1	E12196	1.338323	43.000000	86.000000	0.006000	0.000000
; E12196
SUB-114	RAINGAGE-1	E12196	0.077197	43.000000	86.000000	0.006000	0.000000
; E12192
SUB-116	RAINGAGE-1	E12192	0.778795	43.000000	64.000000	0.006000	0.000000
; E11184
SUB-118	RAINGAGE-1	E11184	4.088022	43.000000	172.000000	0.006000	0.000000
; F1158
SUB-12	RAINGAGE-1	F1158	0.176310	43.000000	25.000000	0.004000	0.000000
; E11180
SUB-120	RAINGAGE-1	E11180	1.108896	43.000000	59.000000	0.017000	0.000000
; E11177
SUB-122	RAINGAGE-1	E11177	0.253778	43.000000	30.000000	0.004000	0.000000
; E11175
SUB-124	RAINGAGE-1	E11175	0.289327	43.000000	60.000000	0.007000	0.000000
; E11441
SUB-126	RAINGAGE-1	E11441	0.479259	43.000000	91.000000	0.004000	0.000000
; E11176
SUB-128	RAINGAGE-1	E11176	0.520457	43.000000	108.000000	0.012000	0.000000
; E11178
SUB-130	RAINGAGE-1	E11178	0.797969	43.000000	70.000000	0.015000	0.000000
; E11179
SUB-132	RAINGAGE-1	E11179	0.144715	43.000000	44.000000	0.016000	0.000000
; E11186
SUB-134	RAINGAGE-1	E11186	0.116993	43.000000	71.000000	0.004000	0.000000
; E11172
SUB-136	RAINGAGE-1	E11172	0.403242	43.000000	29.000000	0.007000	0.000000
; E11173
SUB-138	RAINGAGE-1	E11173	0.164551	43.000000	34.000000	0.011000	0.000000
; JCT-26
SUB-14	RAINGAGE-1	JCT-26	0.011786	43.000000	15.000000	0.009000	0.000000
; E11211
SUB-140	RAINGAGE-1	E11211	0.839921	43.000000	92.000000	0.024000	0.000000
; E11171
SUB-142	RAINGAGE-1	E11171	0.748978	43.000000	35.000000	0.012000	0.000000
; E11141
SUB-144	RAINGAGE-1	E11141	6.157036	43.000000	47.000000	0.005000	0.000000
; E11142
SUB-146	RAINGAGE-1	E11142	3.865057	43.000000	117.000000	0.004000	0.000000
; E11213
SUB-148	RAINGAGE-1	E11213	0.292485	43.000000	42.000000	0.014000	0.000000
; E11146
SUB-150	RAINGAGE-1	E11146	1.252525	43.000000	106.000000	0.016000	0.000000
; E11130
SUB-152	RAINGAGE-1	E11130	0.153717	43.000000	23.000000	0.014000	0.000000
; E11144
SUB-154	RAINGAGE-1	E11144	0.603195	43.000000	67.000000	0.012000	0.000000
; E11151
SUB-156	RAINGAGE-1	E11151	1.069794	43.000000	75.000000	0.011000	0.000000
; E11149
SUB-158	RAINGAGE-1	E11149	0.688955	43.000000	54.000000	0.009000	0.000000
; E1194
SUB-16	RAINGAGE-1	E1194	2.664776	43.000000	112.000000	0.014000	0.000000
; E11148
SUB-160	RAINGAGE-1	E11148	0.086293	43.000000	49.000000	0.028000	0.000000
; E12170
SUB-162	RAINGAGE-1	E12170	1.284330	43.000000	106.000000	0.004000	0.000000
; E12167
SUB-164	RAINGAGE-1	E12167	1.607426	43.000000	64.000000	0.018000	0.000000
; E12164
SUB-166	RAINGAGE-1	E12164	1.902211	43.000000	86.000000	0.006000	0.000000
; E12162
SUB-168	RAINGAGE-1	E12162	0.372219	43.000000	90.000000	0.006000	0.000000
; E12159
SUB-170	RAINGAGE-1	E12159	0.087753	43.000000	33.000000	0.013000	0.000000
; E12158
SUB-172	RAINGAGE-1	E12158	0.507293	43.000000	69.000000	0.005000	0.000000
; E12154
SUB-174	RAINGAGE-1	E12154	0.689493	43.000000	82.000000	0.007000	0.000000
; E11442
SUB-176	RAINGAGE-1	E11442	1.284186	43.000000	61.000000	0.013000	0.000000
; E11125
SUB-178	RAINGAGE-1	E11125	0.060176	43.000000	15.000000	0.028000	0.000000
; E11121
SUB-18	RAINGAGE-1	E11121	1.825136	43.000000	95.000000	0.010000	0.000000
; E11126
SUB-180	RAINGAGE-1	E11126	0.062485	43.000000	21.000000	0.008000	0.000000
; E11127
SUB-182	RAINGAGE-1	E11127	1.387697	43.000000	72.000000	0.006000	0.000000
; E11129
SUB-184	RAINGAGE-1	E11129	2.137600	43.000000	79.000000	0.004000	0.000000
; E11128
SUB-186	RAINGAGE-1	E11128	12.505483	43.000000	317.000000	0.003000	0.000000
; F11110
SUB-188	RAINGAGE-1	F11110	1.461666	43.000000	57.000000	0.004000	0.000000
; F11109
SUB-190	RAINGAGE-1	F11109	1.582918	43.000000	98.000000	0.008000	0.000000
; F11108
SUB-192	RAINGAGE-1	F11108	0.510921	43.000000	60.000000	0.001000	0.000000
; E11102
SUB-194	RAINGAGE-1	E11102	1.536266	43.000000	113.000000	0.018000	0.000000
; E11104
SUB-196	RAINGAGE-1	E11104	0.047891	43.000000	18.000000	0.026000	0.000000
; E11106
SUB-198	RAINGAGE-1	E11106	0.114112	43.000000	20.000000	0.028000	0.000000
; E11120
SUB-20	RAINGAGE-1	E11120	0.852407	43.000000	35.000000	0.012000	0.000000
; F1162
SUB-200	RAINGAGE-1	F1162	0.836875	43.000000	65.000000	0.004000	0.000000
; F1168
SUB-202	RAINGAGE-1	F1168	0.120470	43.000000	36.000000	0.027000	0.000000
; F1172
SUB-204	RAINGAGE-1	F1172	0.816039	43.000000	74.000000	0.013000	0.000000
; F1170
SUB-206	RAINGAGE-1	F1170	0.100737	43.000000	30.000000	0.016000	0.000000
; F1173
SUB-208	RAINGAGE-1	F1173	2.162222	43.000000	145.000000	0.011000	0.000000
; F1169
SUB-210	RAINGAGE-1	F1169	0.970847	43.000000	71.000000	0.007000	0.000000
; F1166
SUB-212	RAINGAGE-1	F1166	0.591570	43.000000	68.000000	0.013000	0.000000
; F1165
SUB-214	RAINGAGE-1	F1165	1.093126	43.000000	94.000000	0.009000	0.000000
; F1164
SUB-216	RAINGAGE-1	F1164	0.942832	43.000000	74.000000	0.012000	0.000000
; F1144
SUB-218	RAINGAGE-1	F1144	1.890893	43.000000	146.000000	0.013000	0.000000
; E11117
SUB-22	RAINGAGE-1	E11117	1.872697	43.000000	119.000000	0.023000	0.000000
; F1146
SUB-220	RAINGAGE-1	F1146	2.169890	43.000000	55.000000	0.015000	0.000000
; F1150
SUB-222	RAINGAGE-1	F1150	0.378245	43.000000	53.000000	0.013000	0.000000
; F1154
SUB-224	RAINGAGE-1	F1154	1.622861	43.000000	135.000000	0.013000	0.000000
; E1185
SUB-226	RAINGAGE-1	E1185	5.066128	43.000000	135.000000	0.004000	0.000000
; E1186
SUB-228	RAINGAGE-1	E1186	2.123749	43.000000	71.000000	0.004000	0.000000
; E1183
SUB-230	RAINGAGE-1	E1183	1.801318	43.000000	123.000000	0.010000	0.000000
; E1182
SUB-232	RAINGAGE-1	E1182	1.015634	43.000000	59.000000	0.007000	0.000000
; E1181
SUB-234	RAINGAGE-1	E1181	0.265353	43.000000	21.000000	0.004000	0.000000
; E11136
SUB-236	RAINGAGE-1	E11136	2.456257	43.000000	35.000000	0.005000	0.000000
; E11115
SUB-24	RAINGAGE-1	E11115	0.621783	43.000000	31.000000	0.005000	0.000000
; E11124
SUB-26	RAINGAGE-1	E11124	0.721773	43.000000	81.000000	0.012000	0.000000
; E11134
SUB-28	RAINGAGE-1	E11134	1.287843	43.000000	81.000000	0.010000	0.000000
; E11132
SUB-30	RAINGAGE-1	E11132	1.299069	43.000000	79.000000	0.009000	0.000000
; E11215
SUB-32	RAINGAGE-1	E11215	0.785649	43.000000	83.000000	0.014000	0.000000
; JCT-10
SUB-34	RAINGAGE-1	CELL-1	0.508304	43.000000	47.000000	0.008000	0.000000
; E11446
SUB-36	RAINGAGE-1	CELL-1	0.927509	43.000000	61.000000	0.006000	0.000000
; E11100
SUB-38	RAINGAGE-1	E11100	0.219759	43.000000	50.000000	0.036000	0.000000
; E1198
SUB-40	RAINGAGE-1	E1198	0.157380	43.000000	41.000000	0.011000	0.000000
; E11112
SUB-42	RAINGAGE-1	CELL-2	0.303949	43.000000	54.000000	0.028000	0.000000
; E1197
SUB-44	RAINGAGE-1	CELL-2	0.480230	43.000000	79.000000	0.026000	0.000000
; E11216
SUB-46	RAINGAGE-1	E11216	3.203304	43.000000	68.000000	0.004000	0.000000
; E11217
SUB-48	RAINGAGE-1	E11217	4.882915	43.000000	82.000000	0.007000	0.000000
; E11447
SUB-50	RAINGAGE-1	E11447	7.473984	43.000000	54.000000	0.028000	0.000000
; E1177
SUB-52	RAINGAGE-1	E1177	1.907550	43.000000	71.000000	0.015000	0.000000
; E1160
SUB-54	RAINGAGE-1	E1160	0.166777	43.000000	26.000000	0.002000	0.000000
; E1193
SUB-56	RAINGAGE-1	E1193	0.485692	43.000000	32.000000	0.022000	0.000000
; JCT-28
SUB-58	RAINGAGE-1	CELL-3	0.478194	43.000000	94.000000	0.005000	0.000000
; E11444
SUB-60	RAINGAGE-1	E11444	0.352430	43.000000	33.000000	0.034000	0.000000
; E11443
SUB-62	RAINGAGE-1	E11443	7.368396	43.000000	118.000000	0.044000	0.000000
; JCT-38
SUB-64	RAINGAGE-1	JCT-38	0.030105	43.000000	28.000000	0.027000	0.000000
; JCT-40
SUB-66	RAINGAGE-1	JCT-40	0.084360	43.000000	40.000000	0.012000	0.000000
; F1159
SUB-68	RAINGAGE-1	F1159	0.537038	43.000000	57.000000	0.016000	0.000000
SUB-70	RAINGAGE-1	F1161	0.854061	43.000000	100.000000	0.022000	0.000000
; JCT-32
SUB-72	RAINGAGE-1	JCT-32	0.038450	43.000000	23.000000	0.005000	0.000000
; E1179
SUB-74	RAINGAGE-1	E1179	0.093877	43.000000	28.000000	0.003000	0.000000
; JCT-34
SUB-76	RAINGAGE-1	JCT-34	0.110747	43.000000	24.000000	0.006000	0.000000
; JCT-30
SUB-78	RAINGAGE-1	JCT-30	0.018977	43.000000	18.000000	0.011000	0.000000
; E1180
SUB-80	RAINGAGE-1	E1180	0.171876	43.000000	59.000000	0.004000	0.000000
; E12200
SUB-82	RAINGAGE-1	E12200	1.723018	43.000000	95.000000	0.003000	0.000000
; E12198
SUB-84	RAINGAGE-1	E12198	8.915562	43.000000	159.000000	0.003000	0.000000
; E12194
SUB-86	RAINGAGE-1	E12194	3.470919	43.000000	133.000000	0.002000	0.000000
; E12193
SUB-88	RAINGAGE-1	E12193	6.464063	43.000000	233.000000	0.002000	0.000000
; E12205
SUB-90	RAINGAGE-1	E12205	11.085304	43.000000	229.000000	0.003000	0.000000
; E12206
SUB-92	RAINGAGE-1	E12206	11.215499	43.000000	322.000000	0.003000	0.000000
; E12207
SUB-94	RAINGAGE-1	E12207	9.348776	43.000000	248.000000	0.004000	0.000000
; E12160
SUB-96	RAINGAGE-1	E12160	0.689319	43.000000	49.000000	0.007000	0.000000
; E12161
SUB-98	RAINGAGE-1	E12161	0.354667	43.000000	66.000000	0.007000	0.000000

[SUBAREAS]
SUB-10	0.013000	0.150000	0.100000	0.200000	0.000000	OUTLET
SUB-100	0.013000	0.150000	0.100000	0.200000	0.000000	OUTLET
SUB-102	0.013000	0.150000	0.100000	0.200000	0.000000	OUTLET
SUB-104	0.013000	0.150000	0.100000	0.200000	0.000000	OUTLET
SUB-106	0.013000	0.150000	0.100000	0.200000	0.000000	OUTLET
SUB-108	0.013000	0.150000	0.100000	0.200000	0.000000	OUTLET
SUB-110	0.013000	0.150000	0.100000	0.200000	0.000000	OUTLET
SUB-112	0.013000	0.150000	0.100000	0.200000	0.000000	OUTLET
SUB-114	0.013000	0.150000	0.100000	0.200000	0.000000	OUTLET
SUB-116	0.013000	0.150000	0.100000	0.200000	0.000000	OUTLET
SUB-118	0.013000	0.150000	0.100000	0.200000	0.000000	OUTLET
SUB-12	0.013000	0.150000	0.100000	0.200000	0.000000	OUTLET
SUB-120	0.013000	0.150000	0.100000	0.200000	0.000000	OUTLET
SUB-122	0.013000	0.150000	0.100000	0.200000	0.000000	OUTLET
SUB-124	0.013000	0.150000	0.100000	0.200000	0.000000	OUTLET
SUB-126	0.013000	0.150000	0.100000	0.200000	0.000000	OUTLET
SUB-128	0.013000	0.150000	0.100000	0.200000	0.000000	OUTLET
SUB-130	0.013000	0.150000	0.100000	0.200000	0.000000	OUTLET
SUB-132	0.013000	0.150000	0.100000	0.200000	0.000000	OUTLET
SUB-134	0.013000	0.150000	0.100000	0.200000	0.000000	OUTLET
SUB-136	0.013000	0.150000	0.100000	0.200000	0.000000	OUTLET
SUB-138	0.013000	0.150000	0.100000	0.200000	0.000000	OUTLET
SUB-14	0.013000	0.150000	0.100000	0.200000	0.000000	OUTLET
SUB-140	0.013000	0.150000	0.100000	0.200000	0.000000	OUTLET
SUB-142	0.013000	0.150000	0.100000	0.200000	0.000000	OUTLET
SUB-144	0.013000	0.150000	0.100000	0.200000	0.000000	OUTLET
SUB-146	0.013000	0.150000	0.100000	0.200000	0.000000	OUTLET
SUB-148	0.013000	0.150000	0.100000	0.200000	0.000000	OUTLET
SUB-150	0.013000	0.150000	0.100000	0.200000	0.000000	OUTLET
SUB-152	0.013000	0.150000	0.100000	0.200000	0.000000	OUTLET
SUB-154	0.013000	0.150000	0.100000	0.200000	0.000000	OUTLET
SUB-156	0.013000	0.150000	0.100000	0.200000	0.000000	OUTLET
SUB-158	0.013000	0.150000	0.100000	0.200000	0.000000	OUTLET
SUB-16	0.013000	0.150000	0.100000	0.200000	0.000000	OUTLET
SUB-160	0.013000	0.150000	0.100000	0.200000	0.000000	OUTLET
SUB-162	0.013000	0.150000	0.100000	0.200000	0.000000	OUTLET
SUB-164	0.013000	0.150000	0.100000	0.200000	0.000000	OUTLET
SUB-166	0.013000	0.150000	0.100000	0.200000	0.000000	OUTLET
SUB-168	0.013000	0.150000	0.100000	0.200000	0.000000	OUTLET
SUB-170	0.013000	0.150000	0.100000	0.200000	0.000000	OUTLET
SUB-172	0.013000	0.150000	0.100000	0.200000	0.000000	OUTLET
SUB-174	0.013000	0.150000	0.100000	0.200000	0.000000	OUTLET
SUB-176	0.013000	0.150000	0.100000	0.200000	0.000000	OUTLET
SUB-178	0.013000	0.150000	0.100000	0.200000	0.000000	OUTLET
SUB-18	0.013000	0.150000	0.100000	0.200000	0.000000	OUTLET
SUB-180	0.013000	0.150000	0.100000	0.200000	0.000000	OUTLET
SUB-182	0.013000	0.150000	0.100000	0.200000	0.000000	OUTLET
SUB-184	0.013000	0.150000	0.100000	0.200000	0.000000	OUTLET
SUB-186	0.013000	0.150000	0.100000	0.200000	0.000000	OUTLET
SUB-188	0.013000	0.150000	0.100000	0.200000	0.000000	OUTLET
SUB-190	0.013000	0.150000	0.100000	0.200000	0.000000	OUTLET
SUB-192	0.013000	0.150000	0.100000	0.200000	0.000000	OUTLET
SUB-194	0.013000	0.150000	0.100000	0.200000	0.000000	OUTLET
SUB-196	0.013000	0.150000	0.100000	0.200000	0.000000	OUTLET
SUB-198	0.013000	0.150000	0.100000	0.200000	0.000000	OUTLET
SUB-20	0.013000	0.150000	0.100000	0.200000	0.000000	OUTLET
SUB-200	0.013000	0.150000	0.100000	0.200000	0.000000	OUTLET
SUB-202	0.013000	0.150000	0.100000	0.200000	0.000000	OUTLET
SUB-204	0.013000	0.150000	0.100000	0.200000	0.000000	OUTLET
SUB-206	0.013000	0.150000	0.100000	0.200000	0.000000	OUTLET
SUB-208	0.013000	0.150000	0.100000	0.200000	0.000000	OUTLET
SUB-210	0.013000	0.150000	0.100000	0.200000	0.000000	OUTLET
SUB-212	0.013000	0.150000	0.100000	0.200000	0.000000	OUTLET
SUB-214	0.013000	0.150000	0.100000	0.200000	0.000000	OUTLET
SUB-216	0.013000	0.150000	0.100000	0.200000	0.000000	OUTLET
SUB-218	0.013000	0.150000	0.100000	0.200000	0.000000	OUTLET
SUB-22	0.013000	0.150000	0.100000	0.200000	0.000000	OUTLET
SUB-220	0.013000	0.150000	0.100000	0.200000	0.000000	OUTLET
SUB-222	0.013000	0.150000	0.100000	0.200000	0.000000	OUTLET
SUB-224	0.013000	0.150000	0.100000	0.200000	0.000000	OUTLET
SUB-226	0.013000	0.150000	0.100000	0.200000	0.000000	OUTLET
SUB-228	0.013000	0.150000	0.100000	0.200000	0.000000	OUTLET
SUB-230	0.013000	0.150000	0.100000	0.200000	0.000000	OUTLET
SUB-232	0.013000	0.150000	0.100000	0.200000	0.000000	OUTLET
SUB-234	0.013000	0.150000	0.100000	0.200000	0.000000	OUTLET
SUB-236	0.013000	0.150000	0.100000	0.200000	0.000000	OUTLET
SUB-24	0.013000	0.150000	0.100000	0.200000	0.000000	OUTLET
SUB-26	0.013000	0.150000	0.100000	0.200000	0.000000	OUTLET
SUB-28	0.013000	0.150000	0.100000	0.200000	0.000000	OUTLET
SUB-30	0.013000	0.150000	0.100000	0.200000	0.000000	OUTLET
SUB-32	0.013000	0.150000	0.100000	0.200000	0.000000	OUTLET
SUB-34	0.013000	0.150000	0.100000	0.200000	0.000000	OUTLET
SUB-36	0.013000	0.150000	0.100000	0.200000	0.000000	OUTLET
SUB-38	0.013000	0.150000	0.100000	0.200000	0.000000	OUTLET
SUB-40	0.013000	0.150000	0.100000	0.200000	0.000000	OUTLET
SUB-42	0.013000	0.150000	0.100000	0.200000	0.000000	OUTLET
SUB-44	0.013000	0.150000	0.100000	0.200000	0.000000	OUTLET
SUB-46	0.013000	0.150000	0.100000	0.200000	0.000000	OUTLET
SUB-48	0.013000	0.150000	0.100000	0.200000	0.000000	OUTLET
SUB-50	0.013000	0.150000	0.100000	0.200000	0.000000	OUTLET
SUB-52	0.013000	0.150000	0.100000	0.200000	0.000000	OUTLET
SUB-54	0.013000	0.150000	0.100000	0.200000	0.000000	OUTLET
SUB-56	0.013000	0.150000	0.100000	0.200000	0.000000	OUTLET
SUB-58	0.013000	0.150000	0.100000	0.200000	0.000000	OUTLET
SUB-60	0.013000	0.150000	0.100000	0.200000	0.000000	OUTLET
SUB-62	0.013000	0.150000	0.100000	0.200000	0.000000	OUTLET
SUB-64	0.013000	0.150000	0.100000	0.200000	0.000000	OUTLET
SUB-66	0.013000	0.150000	0.100000	0.200000	0.000000	OUTLET
SUB-68	0.013000	0.150000	0.100000	0.200000	0.000000	OUTLET
SUB-70	0.013000	0.150000	0.100000	0.200000	0.000000	OUTLET
SUB-72	0.013000	0.150000	0.100000	0.200000	0.000000	OUTLET
SUB-74	0.013000	0.150000	0.100000	0.200000	0.000000	OUTLET
SUB-76	0.013000	0.150000	0.100000	0.200000	0.000000	OUTLET
SUB-78	0.013000	0.150000	0.100000	0.200000	0.000000	OUTLET
SUB-80	0.013000	0.150000	0.100000	0.200000	0.000000	OUTLET
SUB-82	0.013000	0.150000	0.100000	0.200000	0.000000	OUTLET
SUB-84	0.013000	0.150000	0.100000	0.200000	0.000000	OUTLET
SUB-86	0.013000	0.150000	0.100000	0.200000	0.000000	OUTLET
SUB-88	0.013000	0.150000	0.100000	0.200000	0.000000	OUTLET
SUB-90	0.013000	0.150000	0.100000	0.200000	0.000000	OUTLET
SUB-92	0.013000	0.150000	0.100000	0.200000	0.000000	OUTLET
SUB-94	0.013000	0.150000	0.100000	0.200000	0.000000	OUTLET
SUB-96	0.013000	0.150000	0.100000	0.200000	0.000000	OUTLET
SUB-98	0.013000	0.150000	0.100000	0.200000	0.000000	OUTLET

[INFILTRATION]

[AQUIFERS]

[GROUNDWATER]

[GWF]

[SNOWPACKS]

[JUNCTIONS]
CELL-3_MH	-1.260000	4.260000	0.000000	0.000000	0.000000
; E11100
E11100	-0.360000	4.880000	0.000000	0.000000	2178.000000
; E11101
E11101	-1.140000	5.190000	0.000000	10.000000	0.000000
; E11102
E11102	2.500000	2.260000	0.000000	0.000000	2178.000000
; E11104
E11104	3.050000	2.170000	0.000000	0.000000	2178.000000
; E11106
E11106	5.620000	1.000000	0.000000	0.000000	2178.000000
; E11113
E11113	-0.770000	5.820000	0.000000	0.000000	2178.000000
; E11114
E11114	-0.760000	4.810000	0.000000	0.000000	0.000000
; E11115
E11115	0.930000	3.320000	0.000000	0.000000	2178.000000
; E11116
E11116	0.830000	3.500000	0.000000	10.000000	0.000000
; E11117
E11117	0.860000	3.470000	0.000000	0.000000	2178.000000
; E11119
E11119	-0.720000	7.240000	0.000000	0.000000	0.000000
; E11120
E11120	2.010000	3.540000	0.000000	0.000000	2178.000000
; E11121
E11121	2.220000	3.340000	0.000000	0.000000	2178.000000
; E11122
E11122	-0.710000	7.280000	0.000000	0.000000	0.000000
; E11123
E11123	2.810000	3.630000	0.000000	10.000000	0.000000
; E11124
E11124	3.010000	3.630000	0.000000	0.000000	2178.000000
; E11125
E11125	3.160000	3.580000	0.000000	0.000000	2178.000000
; E11126
E11126	3.890000	2.660000	0.000000	0.000000	2178.000000
; E11127
E11127	3.620000	3.120000	0.000000	0.000000	2178.000000
; E11128
E11128	4.690000	2.240000	0.000000	0.000000	2178.000000
; E11129
E11129	4.140000	2.500000	0.000000	0.000000	2178.000000
; E11130
E11130	4.470000	2.500000	0.000000	0.000000	2178.000000
; E11131
E11131	-0.770000	5.830000	0.000000	0.000000	0.000000
; E11132
E11132	1.360000	2.350000	0.000000	0.000000	2178.000000
; E11133
E11133	-0.790000	5.800000	0.000000	0.000000	0.000000
; E11134
E11134	2.830000	2.140000	0.000000	0.000000	2178.000000
; E11135
E11135	-0.800000	6.810000	0.000000	10.000000	0.000000
; E11136
E11136	1.120000	3.600000	0.000000	0.000000	2178.000000
; E11137
E11137	0.590000	3.490000	0.000000	0.000000	2178.000000
; E11139
E11139	-0.860000	7.790000	0.000000	0.000000	0.000000
; E11140
E11140	-0.600000	7.570000	0.000000	0.000000	0.000000
; E11141
E11141	2.200000	3.940000	0.000000	0.000000	2178.000000
; E11142
E11142	2.150000	4.040000	0.000000	0.000000	2178.000000
; E11143
E11143	-0.350000	5.430000	0.000000	0.000000	0.000000
; E11144
E11144	1.450000	2.720000	0.000000	0.000000	2178.000000
; E11145
E11145	-0.290000	5.370000	0.000000	0.000000	0.000000
; E11146
E11146	2.960000	2.370000	0.000000	0.000000	2178.000000
; E11147
E11147	0.210000	6.710000	0.000000	0.000000	0.000000
; E11148
E11148	1.960000	5.030000	0.000000	0.000000	2178.000000
; E11149
E11149	3.780000	3.350000	0.000000	0.000000	2178.000000
; E11150
E11150	0.290000	6.720000	0.000000	0.000000	0.000000
; E11151
E11151	3.890000	3.300000	0.000000	0.000000	2178.000000
; E11152
E11152	0.310000	6.750000	0.000000	10.000000	0.000000
; E11171
E11171	1.530000	3.000000	0.000000	0.000000	2178.000000
; E11172
E11172	2.280000	2.330000	0.000000	0.000000	2178.000000
; E11173
E11173	2.560000	2.370000	0.000000	0.000000	2178.000000
; E11174
E11174	0.010000	7.120000	0.000000	10.000000	0.000000
; E11175
E11175	0.310000	6.740000	0.000000	0.000000	2178.000000
; E11176
E11176	1.550000	4.340000	0.000000	0.000000	2178.000000
; E11177
E11177	1.460000	4.430000	0.000000	0.000000	2178.000000
; E11178
E11178	0.000000	4.830000	0.000000	0.000000	2178.000000
; E11179
E11179	0.580000	3.840000	0.000000	0.000000	2178.000000
; E11180
E11180	2.760000	2.560000	0.000000	0.000000	2178.000000
; E11181
E11181	0.590000	4.590000	0.000000	10.000000	0.000000
; E11182
E11182	2.710000	2.550000	0.000000	0.000000	2178.000000
; E11183
E11183	0.760000	4.460000	0.000000	10.000000	0.000000
; E11184
E11184	3.330000	2.600000	0.000000	0.000000	2178.000000
; E11185
E11185	0.790000	3.050000	0.000000	0.000000	2178.000000
; E11186
E11186	2.530000	2.100000	0.000000	0.000000	2178.000000
; E11187
E11187	0.850000	5.860000	0.000000	0.000000	0.000000
; E11188
E11188	2.160000	2.820000	0.000000	0.000000	2178.000000
; E11210
E11210	-0.440000	6.430000	0.000000	10.000000	0.000000
; E11211
E11211	2.590000	1.540000	0.000000	0.000000	2178.000000
; E11212
E11212	-0.470000	6.450000	0.000000	0.000000	0.000000
; E11213
E11213	2.620000	2.700000	0.000000	0.000000	2178.000000
; E11214
E11214	2.790000	2.760000	0.000000	0.000000	0.000000
; E11215
E11215	0.140000	2.450000	0.000000	0.000000	2178.000000
; E11216
E11216	1.130000	3.880000	0.000000	0.000000	2178.000000
; E11217
E11217	1.410000	3.540000	0.000000	0.000000	2178.000000
; E11441
E11441	1.040000	3.000000	0.000000	0.000000	2178.000000
; E11442
E11442	1.750000	1.270000	0.000000	0.000000	2178.000000
; E11443
E11443	-0.420000	3.210000	0.000000	0.000000	2178.000000
; E11444
E11444	0.270000	3.260000	0.000000	0.000000	2178.000000
; E11446
E11446	-0.930000	2.350000	0.000000	0.000000	2178.000000
; E11447
E11447	-0.020000	2.750000	0.000000	0.000000	2178.000000
; E1156
E1156	-2.080000	6.240000	0.000000	0.000000	0.000000
; E1157
E1157	0.110000	4.310000	0.000000	10.000000	0.000000
; E1160
E1160	0.580000	3.610000	0.000000	0.000000	2178.000000
; E1175
E1175	-2.980000	6.530000	0.000000	10.000000	0.000000
; E1176
E1176	-3.150000	5.520000	0.000000	10.000000	0.000000
; E1177
E1177	-0.800000	3.700000	0.000000	0.000000	2178.000000
; E1178
E1178	-2.380000	5.350000	0.000000	10.000000	0.000000
; E1179
E1179	-2.380000	5.570000	0.000000	0.000000	2178.000000
; E1180
E1180	-0.990000	3.050000	0.000000	0.000000	2178.000000
; E1181
E1181	0.670000	4.880000	0.000000	10.000000	0.000000
; E1182
E1182	1.180000	4.180000	0.000000	0.000000	2178.000000
; E1183
E1183	2.520000	3.560000	0.000000	0.000000	2178.000000
; E1184
E1184	3.380000	3.390000	0.000000	10.000000	0.000000
; E1185
E1185	3.780000	3.290000	0.000000	0.000000	2178.000000
; E1186
E1186	3.960000	3.440000	0.000000	0.000000	2178.000000
; E1189
E1189	-2.180000	6.150000	0.000000	10.000000	0.000000
; E1193
E1193	-1.420000	4.510000	0.000000	0.000000	2178.000000
; E1194
E1194	-0.590000	2.640000	0.000000	0.000000	2178.000000
; E1196
E1196	-0.870000	6.040000	0.000000	10.000000	0.000000
; E1198
E1198	3.370000	1.250000	0.000000	0.000000	2178.000000
; E1199
E1199	-0.780000	5.080000	0.000000	0.000000	0.000000
; E12153
E12153	3.080000	5.130000	0.000000	10.000000	0.000000
; E12154
E12154	4.240000	4.000000	0.000000	0.000000	2178.000000
; E12155
E12155	4.710000	3.220000	0.000000	0.000000	2178.000000
; E12156
E12156	5.960000	2.020000	0.000000	0.000000	2178.000000
; E12157
E12157	3.470000	4.530000	0.000000	10.000000	0.000000
; E12158
E12158	5.800000	2.600000	0.000000	0.000000	2178.000000
; E12159
E12159	3.600000	4.710000	0.000000	0.000000	2178.000000
; E12160
E12160	5.150000	3.170000	0.000000	0.000000	2178.000000
; E12161
E12161	6.600000	1.550000	0.000000	0.000000	2178.000000
; E12162
E12162	4.050000	3.990000	0.000000	0.000000	2178.000000
; E12163
E12163	3.890000	5.420000	0.000000	0.000000	2178.000000
; E12164
E12164	6.890000	2.450000	0.000000	0.000000	2178.000000
; E12165
E12165	4.190000	5.670000	0.000000	10.000000	0.000000
; E12166
E12166	4.620000	4.490000	0.000000	0.000000	2178.000000
; E12167
E12167	4.520000	4.440000	0.000000	0.000000	2178.000000
; E12168
E12168	4.870000	4.000000	0.000000	10.000000	0.000000
; E12169
E12169	4.530000	4.370000	0.000000	10.000000	0.000000
; E12170
E12170	6.470000	2.550000	0.000000	0.000000	2178.000000
; E12189
E12189	1.060000	5.110000	0.000000	10.000000	0.000000
; E12190
E12190	2.830000	4.180000	0.000000	10.000000	0.000000
; E12191
E12191	3.830000	4.210000	0.000000	0.000000	2178.000000
; E12192
E12192	4.290000	3.910000	0.000000	0.000000	2178.000000
; E12193
E12193	4.740000	3.640000	0.000000	0.000000	2178.000000
; E12194
E12194	5.610000	2.600000	0.000000	0.000000	2178.000000
; E12195
E12195	1.110000	5.700000	0.000000	0.000000	0.000000
; E12196
E12196	2.460000	3.460000	0.000000	0.000000	2178.000000
; E12197
E12197	1.260000	5.740000	0.000000	10.000000	0.000000
; E12198
E12198	2.690000	3.600000	0.000000	0.000000	2178.000000
; E12199
E12199	1.310000	5.420000	0.000000	10.000000	0.000000
; E12200
E12200	2.580000	3.960000	0.000000	0.000000	2178.000000
; E12201
E12201	3.350000	3.250000	0.000000	0.000000	2178.000000
; E12202
E12202	1.420000	5.940000	0.000000	0.000000	0.000000
; E12204
E12204	1.430000	5.350000	0.000000	10.000000	0.000000
; E12205
E12205	1.770000	5.270000	0.000000	0.000000	2178.000000
; E12206
E12206	1.930000	5.040000	0.000000	0.000000	2178.000000
; E12207
E12207	2.510000	4.580000	0.000000	0.000000	2178.000000
; E12208
E12208	4.530000	2.700000	0.000000	0.000000	2178.000000
; F11107
F11107	5.350000	3.700000	0.000000	10.000000	0.000000
; F11108
F11108	5.870000	2.850000	0.000000	0.000000	2178.000000
; F11109
F11109	5.820000	2.830000	0.000000	0.000000	2178.000000
; F11110
F11110	6.200000	2.530000	0.000000	0.000000	2178.000000
; F1142
F1142	-1.990000	5.110000	0.000000	0.000000	0.000000
; F1143
F1143	-1.480000	5.370000	0.000000	10.000000	0.000000
; F1144
F1144	-0.320000	5.200000	0.000000	0.000000	2178.000000
; F1145
F1145	0.200000	5.650000	0.000000	10.000000	0.000000
; F1146
F1146	0.710000	1.000000	0.000000	0.000000	2178.000000
; F1148
F1148	0.830000	0.000000	0.000000	0.000000	2178.000000
; F1149
F1149	1.610000	3.130000	0.000000	10.000000	0.000000
; F1150
F1150	1.920000	1.000000	0.000000	0.000000	2178.000000
; F1154
F1154	2.370000	1.000000	0.000000	0.000000	2178.000000
; F1158
F1158	1.480000	3.130000	0.000000	0.000000	2178.000000
; F1159
F1159	2.180000	2.560000	0.000000	0.000000	2178.000000
; F1161
F1161	1.000000	4.110000	0.000000	0.000000	2178.000000
; F1162
F1162	4.550000	1.800000	0.000000	0.000000	2178.000000
; F1163
F1163	0.910000	6.100000	0.000000	10.000000	0.000000
; F1164
F1164	3.820000	3.990000	0.000000	0.000000	2178.000000
; F1165
F1165	3.700000	3.560000	0.000000	0.000000	2178.000000
; F1166
F1166	4.480000	2.540000	0.000000	0.000000	2178.000000
; F1167
F1167	2.600000	6.090000	0.000000	10.000000	0.000000
; F1168
F1168	3.820000	5.050000	0.000000	0.000000	2178.000000
; F1169
F1169	4.760000	4.500000	0.000000	0.000000	2178.000000
; F1170
F1170	2.190000	6.340000	0.000000	0.000000	2178.000000
; F1171
F1171	2.710000	4.430000	0.000000	10.000000	0.000000
; F1172
F1172	6.750000	1.830000	0.000000	0.000000	2178.000000
; F1173
F1173	6.480000	2.560000	0.000000	0.000000	2178.000000
; New Junction
JCT-12	-0.780000	5.440000	0.000000	10.000000	0.000000
; New Junction
JCT-14	-0.850000	5.150000	0.000000	0.000000	0.000000
; New Junction
JCT-16	-0.850000	5.150000	0.000000	10.000000	0.000000
; New Junction
JCT-18	-2.180000	6.250000	0.000000	0.000000	0.000000
; New Junction
JCT-20	-2.180000	6.270000	0.000000	0.000000	0.000000
; New Junction
JCT-22	-2.090000	6.220000	0.000000	0.000000	0.000000
; New Junction
JCT-24	-2.090000	6.240000	0.000000	0.000000	0.000000
; New Junction
JCT-26	-0.080000	3.500000	0.000000	0.000000	2178.000000
; New Junction
JCT-30	-0.730000	2.700000	0.000000	10.000000	0.000000
; New Junction
JCT-32	-0.770000	3.000000	0.000000	10.000000	0.000000
; New Junction
JCT-34	-0.980000	3.800000	0.000000	10.000000	0.000000
; New Junction
JCT-36	0.770000	3.840000	0.000000	10.000000	0.000000
; New Junction
JCT-38	-1.170000	4.370000	0.000000	10.000000	0.000000
; New Junction
JCT-40	1.170000	2.740000	0.000000	10.000000	0.000000
; New Junction
JCT-42	-0.710000	7.260000	0.000000	10.000000	0.000000
; New Junction
JCT-44	4.310000	3.510000	0.000000	10.000000	0.000000

[OUTFALLS]
; F1141
OUTFALL	-1.990000	FIXED	2.820000	NO

[DIVIDERS]

[STORAGE]
CELL-1	-2.500000	5.500000	1.500000	TABULAR	CELL-1	0.000000	0.000000
CELL-2	-2.500000	5.500000	1.500000	TABULAR	CELL-2	0.000000	0.000000
CELL-3	-2.500000	5.500000	1.500000	TABULAR	CELL-3	0.000000	0.000000

[CONDUITS]
; New Conduit
CDT-101	E11100	JCT-14	43.130000	0.013000	0.130000	3.500000	0.000000	0.000000
; New Conduit
CDT-105	E1198	E1196	11.630000	0.013000	0.000000	0.000000	0.000000	0.000000
; New Conduit
CDT-109	E1194	E1193	58.890000	0.013000	0.000000	0.000000	0.000000	0.000000
; New Conduit
CDT-11	E11139	E11135	146.060000	0.013000	0.000000	0.000000	0.000000	0.000000
; New Conduit
CDT-111	E1193	E1189	54.930000	0.013000	1.790000	3.500000	0.000000	0.000000
; New Conduit
CDT-113	E11444	E11443	48.990000	0.024000	0.000000	0.000000	0.000000	0.000000
; New Conduit
CDT-115	E11443	CELL-3_MH	50.000000	0.013000	0.000000	4.000000	0.000000	0.000000
; New Conduit
CDT-119	F1161	E1160	62.490000	0.013000	0.000000	0.000000	0.000000	0.000000
; New Conduit
CDT-121	E1160	JCT-22	43.310000	0.024000	0.270000	3.750000	0.000000	0.000000
; New Conduit
CDT-123	JCT-26	JCT-24	20.040000	0.013000	0.000000	3.250000	0.000000	0.000000
; New Conduit
CDT-125	F1162	E1157	167.410000	0.013000	0.000000	0.000000	0.000000	0.000000
; New Conduit
CDT-127	E1157	JCT-24	40.132000	0.013000	0.120000	3.250000	0.000000	0.000000
; New Conduit
CDT-129	F1159	F1158	36.570000	0.013000	0.000000	0.050000	0.000000	0.000000
; New Conduit
CDT-13	E11135	E11133	16.310000	0.013000	0.000000	0.000000	0.000000	0.000000
; New Conduit
CDT-131	F1158	JCT-36	35.060000	0.013000	0.000000	0.060000	0.000000	0.000000
; New Conduit