[TITLE]
;;Project Title/Notes

[OPTIONS]
;;Option             Value
FLOW_UNITS           GPM
INFILTRATION         HORTON
FLOW_ROUTING         DYNWAVE
LINK_OFFSETS         DEPTH
MIN_SLOPE            0
ALLOW_PONDING        YES
SKIP_STEADY_STATE    NO

START_DATE           01/01/2002
START_TIME           00:00:00
REPORT_START_DATE    01/01/2002
REPORT_START_TIME    00:00:00
END_DATE             01/01/2002
END_TIME             23:00:00
SWEEP_START          01/01
SWEEP_END            12/31
DRY_DAYS             5.000000
REPORT_STEP          00:05:00
WET_STEP             00:05:00
DRY_STEP             01:00:00
ROUTING_STEP         0:00:10 

INERTIAL_DAMPING     NONE
NORMAL_FLOW_LIMITED  SLOPE
FORCE_MAIN_EQUATION  H-W
VARIABLE_STEP        0.75
LENGTHENING_STEP     0
MIN_SURFAREA         0
MAX_TRIALS           4
HEAD_TOLERANCE       0.005000
SYS_FLOW_TOL         5
LAT_FLOW_TOL         5
MINIMUM_STEP         0
THREADS              1

[EVAPORATION]
;;Data Source    Parameters
;;-------------- ----------------
CONSTANT         0.0
DRY_ONLY         NO

[JUNCTIONS]
;;Name           Elevation  MaxDepth   InitDepth  SurDepth   Aponded   
;;-------------- ---------- ---------- ---------- ---------- ----------
1000             568.510000 12.920000  0.000000   0.000000   0.000000  
1001             567.910000 11.360000  0.000000   0.000000   0.000000  
1002             567.470000 11.690000  0.000000   0.000000   0.000000  
1003             566.660000 11.130000  0.000000   0.000000   0.000000  
1004             565.780000 9.520000   0.000000   0.000000   0.000000  
1005             565.240000 10.510000  0.000000   0.000000   0.000000  
1006             561.030000 10.970000  0.000000   0.000000   0.000000  
1007             560.580000 10.880000  0.000000   0.000000   0.000000  
1008             558.990000 10.580000  0.000000   0.000000   0.000000  
1009             558.670000 10.510000  0.000000   0.000000   0.000000  
1010             555.950000 12.280000  0.000000   0.000000   0.000000  
1011             549.570000 10.290000  0.000000   0.000000   0.000000  
1012             584.200000 11.450000  0.000000   0.000000   0.000000  
1013             582.780000 10.690000  0.000000   0.000000   0.000000  
1014             579.170000 11.410000  0.000000   0.000000   0.000000  
1015             578.010000 6.940000   0.000000   0.000000   0.000000  
1016             575.800000 6.140000   0.000000   0.000000   0.000000  
1017             573.500000 8.300000   0.000000   0.000000   0.000000  
1018             569.800000 9.800000   0.000000   0.000000   0.000000  
1019             567.630000 10.370000  0.000000   0.000000   0.000000  
1020             567.910000 8.500000   0.000000   1000.000000 0.000000  
1021             586.870000 4.630000   0.000000   0.000000   0.000000  
1022             585.240000 5.370000   0.000000   0.000000   0.000000  
1023             569.000000 10.400000  0.000000   0.000000   0.000000  
1024             566.280000 11.720000  0.000000   0.000000   0.000000  
1025             564.760000 9.740000   0.000000   0.000000   0.000000  
1026             561.770000 9.230000   0.000000   0.000000   0.000000  
1027             559.850000 9.750000   0.000000   0.000000   0.000000  
1028             557.910000 10.090000  0.000000   0.000000   0.000000  
1029             556.610000 10.860000  0.000000   0.000000   0.000000  
1030             554.600000 13.400000  0.000000   0.000000   0.000000  
1031             552.880000 12.120000  0.000000   0.000000   0.000000  
1032             552.000000 10.500000  0.000000   0.000000   0.000000  
1033             551.790000 7.210000   0.000000   0.000000   0.000000  
1034             550.760000 9.440000   0.000000   0.000000   0.000000  
1035             570.980000 9.310000   0.000000   0.000000   0.000000  
1036             645.310000 12.790000  0.000000   0.000000   0.000000  
1037             640.940000 14.260000  0.000000   0.000000   0.000000  
1038             640.160000 17.470000  0.000000   0.000000   0.000000  
1039             635.120000 19.900000  0.000000   0.000000   0.000000  
1040             633.090000 21.110000  0.000000   0.000000   0.000000  
1041             630.900000 12.500000  0.000000   0.000000   0.000000  
1042             627.340000 9.860000   0.000000   0.000000   0.000000  
1043             622.580000 13.420000  0.000000   0.000000   0.000000  
1044             615.690000 10.310000  0.000000   0.000000   0.000000  
1045             612.590000 10.810000  0.000000   0.000000   0.000000  
1046             607.160000 15.440000  0.000000   0.000000   0.000000  
1047             606.620000 17.480000  0.000000   0.000000   0.000000  
1048             606.360000 16.140000  0.000000   0.000000   0.000000  
1049             605.840000 16.970000  0.000000   0.000000   0.000000  
1050             605.400000 17.600000  0.000000   0.000000   0.000000  
1051             604.320000 11.260000  0.000000   0.000000   0.000000  
1052             602.250000 8.060000   0.000000   0.000000   0.000000  
1053             601.180000 8.650000   0.000000   0.000000   0.000000  
1054             600.550000 10.140000  0.000000   0.000000   0.000000  
1055             599.270000 5.690000   0.000000   0.000000   0.000000  
1056             598.370000 9.820000   0.000000   0.000000   0.000000  
1057             596.210000 10.210000  0.000000   0.000000   0.000000  
1058             594.610000 12.030000  0.000000   0.000000   0.000000  
1059             592.770000 10.450000  0.000000   0.000000   0.000000  
1060             591.570000 14.430000  0.000000   0.000000   0.000000  
1061             589.540000 12.610000  0.000000   0.000000   0.000000  
1062             581.030000 14.360000  0.000000   0.000000   0.000000  
1063             579.800000 15.420000  0.000000   0.000000   0.000000  
1064             577.160000 14.620000  0.000000   0.000000   0.000000  
1065             575.770000 16.730000  0.000000   0.000000   0.000000  
1066             574.250000 14.750000  0.000000   0.000000   0.000000  
1067             573.580000 16.760000  0.000000   0.000000   0.000000  
1068             572.710000 14.870000  0.000000   0.000000   0.000000  
1069             572.170000 12.690000  0.000000   0.000000   0.000000  
1070             570.270000 10.440000  0.000000   0.000000   0.000000  
1071             569.880000 11.030000  0.000000   0.000000   0.000000  
1072             568.630000 3.890000   0.000000   0.000000   0.000000  
1073             567.520000 15.050000  0.000000   0.000000   0.000000  
1074             565.930000 8.570000   0.000000   0.000000   0.000000  
1075             565.080000 9.420000   0.000000   0.000000   0.000000  
1076             562.770000 11.730000  0.000000   0.000000   0.000000  
1077             560.530000 12.470000  0.000000   0.000000   0.000000  
1078             559.550000 11.950000  0.000000   0.000000   0.000000  
1079             557.990000 15.990000  0.000000   0.000000   0.000000  
1080             557.290000 14.760000  0.000000   0.000000   0.000000  
1081             550.600000 16.400000  0.000000   0.000000   0.000000  
1082             548.620000 18.380000  0.000000   0.000000   0.000000  
1083             546.020000 15.260000  0.000000   0.000000   0.000000  
1084             544.570000 10.420000  0.000000   0.000000   0.000000  
1085             544.220000 13.730000  0.000000   0.000000   0.000000  
1086             542.780000 15.820000  0.000000   0.000000   0.000000  
1087             540.530000 13.000000  0.000000   0.000000   0.000000  
1088             537.470000 14.990000  0.000000   0.000000   0.000000  
1089             536.700000 17.300000  0.000000   0.000000   0.000000  
1090             532.510000 14.080000  0.000000   0.000000   0.000000  
1091             532.140000 12.250000  0.000000   0.000000   0.000000  
1092             531.020000 13.580000  0.000000   0.000000   0.000000  
1093             530.030000 12.710000  0.000000   0.000000   0.000000  
1094             529.320000 10.880000  0.000000   0.000000   0.000000  
1095             527.910000 11.360000  0.000000   0.000000   0.000000  
1096             524.260000 13.990000  0.000000   0.000000   0.000000  
1097             521.510000 12.370000  0.000000   0.000000   0.000000  
1098             520.860000 13.140000  0.000000   0.000000   0.000000  
1099             517.800000 16.780000  0.000000   0.000000   0.000000  
1100             570.250000 5.150000   0.000000   0.000000   0.000000  
1101             568.640000 13.860000  0.000000   0.000000   0.000000  
1102             568.130000 8.870000   0.000000   0.000000   0.000000  
1103             567.550000 7.650000   0.000000   0.000000   0.000000  
1104             566.550000 11.750000  0.000000   0.000000   0.000000  
1105             564.190000 9.910000   0.000000   0.000000   0.000000  
1106             562.800000 12.700000  0.000000   0.000000   0.000000  
1107             562.430000 15.070000  0.000000   0.000000   0.000000  
1108             561.420000 12.580000  0.000000   0.000000   0.000000  
1109             559.500000 15.500000  0.000000   1000.000000 0.000000  
1110             567.510000 14.290000  0.000000   0.000000   0.000000  
1111             564.440000 5.060000   0.000000   0.000000   0.000000  
1112             592.760000 9.240000   0.000000   0.000000   0.000000  
1113             590.500000 10.000000  0.000000   0.000000   0.000000  
1114             584.940000 13.260000  0.000000   0.000000   0.000000  
1115             583.790000 15.210000  0.000000   0.000000   0.000000  
1116             580.710000 9.290000   0.000000   0.000000   0.000000  
1117             580.000000 10.000000  0.000000   0.000000   0.000000  
1118             592.150000 9.150000   0.000000   0.000000   0.000000  
1119             587.710000 9.490000   0.000000   0.000000   0.000000  
1120             586.000000 9.600000   0.000000   0.000000   0.000000  
1121             581.000000 10.800000  0.000000   0.000000   0.000000  
1122             579.640000 10.360000  0.000000   0.000000   0.000000  
1123             580.000000 8.000000   0.000000   1000.000000 0.000000  
1124             596.500000 8.700000   0.000000   0.000000   0.000000  
1125             591.170000 11.130000  0.000000   0.000000   0.000000  
1126             640.420000 8.580000   0.000000   0.000000   0.000000  
1127             622.700000 24.700000  0.000000   0.000000   0.000000  
1128             622.370000 26.530000  0.000000   0.000000   0.000000  
1129             621.790000 23.310000  0.000000   0.000000   0.000000  
1130             621.020000 21.980000  0.000000   0.000000   0.000000  
1131             620.070000 17.730000  0.000000   0.000000   0.000000  
1132             619.090000 17.910000  0.000000   0.000000   0.000000  
1133             617.310000 19.990000  0.000000   0.000000   0.000000  
1134             616.700000 19.400000  0.000000   0.000000   0.000000  
1135             615.570000 14.030000  0.000000   0.000000   0.000000  
1136             614.250000 11.050000  0.000000   0.000000   0.000000  
1137             612.600000 11.100000  0.000000   0.000000   0.000000  
1138             610.850000 12.950000  0.000000   0.000000   0.000000  
1139             609.290000 14.010000  0.000000   0.000000   0.000000  
1140             596.700000 8.800000   0.000000   0.000000   0.000000  
1141             593.810000 6.850000   0.000000   0.000000   0.000000  
1142             591.000000 7.000000   0.000000   0.000000   0.000000  
1143             587.130000 6.870000   0.000000   0.000000   0.000000  
1144             578.800000 7.200000   0.000000   0.000000   0.000000  
1145             577.940000 6.060000   0.000000   0.000000   0.000000  
1146             577.500000 6.500000   0.000000   0.000000   0.000000  
1147             563.920000 3.880000   0.000000   0.000000   0.000000  
1148             563.510000 3.090000   0.000000   0.000000   0.000000  
1149             563.100000 3.500000   0.000000   0.000000   0.000000  
1150             563.000000 16.200000  0.000000   1000.000000 0.000000  
1151             620.450000 5.650000   0.000000   0.000000   0.000000  
1152             618.560000 6.340000   0.000000   0.000000   0.000000  
1153             617.610000 16.290000  0.000000   0.000000   0.000000  
1154             616.620000 18.280000  0.000000   0.000000   0.000000  
1155             613.900000 16.500000  0.000000   0.000000   0.000000  
1156             612.930000 19.270000  0.000000   0.000000   0.000000  
1157             612.320000 20.280000  0.000000   0.000000   0.000000  
1158             610.230000 19.770000  0.000000   0.000000   0.000000  
1159             608.960000 19.040000  0.000000   0.000000   0.000000  
1160             597.170000 12.130000  0.000000   0.000000   0.000000  
1161             595.250000 9.350000   0.000000   0.000000   0.000000  
1162             590.450000 10.750000  0.000000   0.000000   0.000000  
1163             588.530000 8.270000   0.000000   0.000000   0.000000  
1164             583.180000 10.620000  0.000000   0.000000   0.000000  
1165             636.210000 9.790000   0.000000   0.000000   0.000000  
1166             635.930000 10.270000  0.000000   0.000000   0.000000  
1167             633.730000 11.270000  0.000000   0.000000   0.000000  
1168             632.380000 9.120000   0.000000   0.000000   0.000000  
1169             613.270000 10.830000  0.000000   0.000000   0.000000  
1170             607.950000 8.950000   0.000000   0.000000   0.000000  
1171             603.340000 8.800000   0.000000   0.000000   0.000000  
1172             601.450000 7.850000   0.000000   0.000000   0.000000  
1173             591.540000 11.130000  0.000000   0.000000   0.000000  
1174             590.190000 11.810000  0.000000   0.000000   0.000000  
1175             588.220000 10.030000  0.000000   0.000000   0.000000  
1176             584.340000 8.760000   0.000000   0.000000   0.000000  
1177             580.500000 9.500000   0.000000   0.000000   0.000000  
1178             610.100000 6.700000   0.000000   0.000000   0.000000  
1179             608.590000 8.210000   0.000000   0.000000   0.000000  
1180             583.270000 19.930000  0.000000   0.000000   0.000000  
1181             581.930000 20.270000  0.000000   0.000000   0.000000  
1182             577.860000 4.940000   0.000000   0.000000   0.000000  
1183             578.210000 13.490000  0.000000   0.000000   0.000000  
1184             576.550000 15.650000  0.000000   0.000000   0.000000  
1185             574.230000 14.870000  0.000000   0.000000   0.000000  
1186             573.500000 11.600000  0.000000   0.000000   0.000000  
1187             573.270000 12.830000  0.000000   0.000000   0.000000  
1188             571.470000 13.630000  0.000000   0.000000   0.000000  
1189             571.060000 13.240000  0.000000   0.000000   0.000000  
1190             570.540000 11.960000  0.000000   0.000000   0.000000  
1191             573.000000 10.300000  0.000000   0.000000   0.000000  
1192             571.800000 12.400000  0.000000   0.000000   0.000000  
1193             570.710000 10.590000  0.000000   0.000000   0.000000  
1194             569.440000 11.060000  0.000000   0.000000   0.000000  
1195             568.250000 7.750000   0.000000   0.000000   0.000000  
1196             567.500000 8.500000   0.000000   0.000000   0.000000  
1197             543.440000 8.000000   0.000000   0.000000   0.000000  
1198             541.420000 8.000000   0.000000   0.000000   0.000000  
1199             540.070000 8.000000   0.000000   0.000000   0.000000  
1200             551.070000 14.130000  0.000000   0.000000   0.000000  
1201             550.260000 12.110000  0.000000   0.000000   0.000000  
1202             549.020000 9.090000   0.000000   0.000000   0.000000  
1203             547.880000 9.510000   0.000000   0.000000   0.000000  
1204             538.920000 7.620000   0.000000   0.000000   0.000000  
1205             573.340000 19.040000  0.000000   0.000000   0.000000  
1206             572.110000 18.850000  0.000000   0.000000   0.000000  
1207             571.690000 16.490000  0.000000   0.000000   0.000000  
1208             570.730000 13.820000  0.000000   0.000000   0.000000  
1209             568.100000 13.620000  0.000000   0.000000   0.000000  
1210             567.330000 10.170000  0.000000   0.000000   0.000000  
1211             566.460000 10.850000  0.000000   0.000000   0.000000  
1212             564.920000 18.480000  0.000000   0.000000   0.000000  
1213             564.470000 12.930000  0.000000   0.000000   0.000000  
1214             563.110000 17.390000  0.000000   0.000000   0.000000  
1215             575.440000 15.560000  0.000000   0.000000   0.000000  
1216             576.850000 14.950000  0.000000   0.000000   0.000000  
1217             584.200000 14.600000  0.000000   0.000000   0.000000  
1218             586.160000 10.340000  0.000000   0.000000   0.000000  
1219             622.980000 6.020000   0.000000   0.000000   0.000000  
1220             615.120000 6.380000   0.000000   0.000000   0.000000  
1221             596.000000 10.000000  0.000000   0.000000   0.000000  
1222             593.460000 11.040000  0.000000   0.000000   0.000000  
1223             584.430000 11.070000  0.000000   0.000000   0.000000  
1224             581.650000 13.850000  0.000000   0.000000   0.000000  
1225             579.920000 10.080000  0.000000   0.000000   0.000000  
1226             575.840000 7.160000   0.000000   0.000000   0.000000  
1227             574.950000 9.250000   0.000000   0.000000   0.000000  
1228             569.160000 11.340000  0.000000   0.000000   0.000000  
1229             557.850000 14.350000  0.000000   0.000000   0.000000  
1230             557.230000 17.670000  0.000000   0.000000   0.000000  
1231             556.420000 23.580000  0.000000   0.000000   0.000000  
1232             554.060000 27.640000  0.000000   0.000000   0.000000  
1233             551.730000 13.270000  0.000000   0.000000   0.000000  
1234             551.130000 15.570000  0.000000   0.000000   0.000000  
1235             550.090000 18.610000  0.000000   0.000000   0.000000  
1236             545.840000 15.860000  0.000000   0.000000   0.000000  
1237             543.340000 20.260000  0.000000   0.000000   0.000000  
1238             542.770000 20.230000  0.000000   0.000000   0.000000  
1239             535.130000 11.070000  0.000000   0.000000   0.000000  
1240             532.400000 13.600000  0.000000   0.000000   0.000000  
1241             531.830000 12.970000  0.000000   0.000000   0.000000  
1242             530.000000 18.400000  0.000000   0.000000   0.000000  
1243             528.600000 13.200000  0.000000   0.000000   0.000000  
1244             523.630000 10.370000  0.000000   0.000000   0.000000  
1245             514.460000 16.440000  0.000000   0.000000   0.000000  
1246             513.000000 8.200000   0.000000   0.000000   0.000000  
1247             512.720000 8.580000   0.000000   0.000000   0.000000  
1248             506.610000 14.690000  0.000000   0.000000   0.000000  
1249             502.060000 7.420000   0.000000   0.000000   0.000000  
1250             562.540000 14.460000  0.000000   1000.000000 0.000000  
1251             598.290000 8.310000   0.000000   0.000000   0.000000  
1252             592.600000 10.400000  0.000000   0.000000   0.000000  
1253             587.140000 7.760000   0.000000   0.000000   0.000000  
1254             587.020000 9.880000   0.000000   0.000000   0.000000  
1257             555.000000 10.500000  0.000000   0.000000   0.000000  
1258             541.420000 6.080000   0.000000   0.000000   0.000000  
1259             530.000000 10.100000  0.000000   0.000000   0.000000  
1260             547.230000 11.470000  0.000000   0.000000   0.000000  
1261             546.260000 5.540000   0.000000   0.000000   0.000000  
1262             545.660000 7.540000   0.000000   0.000000   0.000000  
1263             545.100000 4.900000   0.000000   0.000000   0.000000  
1264             545.970000 5.530000   0.000000   0.000000   0.000000  
1265             545.020000 7.980000   0.000000   0.000000   0.000000  
1266             544.010000 10.990000  0.000000   0.000000   0.000000  
1267             543.450000 13.050000  0.000000   0.000000   0.000000  
1268             542.730000 12.770000  0.000000   0.000000   0.000000  
1269             541.900000 16.100000  0.000000   0.000000   0.000000  
1270             541.260000 17.740000  0.000000   0.000000   0.000000  
1271             540.330000 16.670000  0.000000   0.000000   0.000000  
1272             539.340000 9.660000   0.000000   0.000000   0.000000  
1273             533.440000 6.560000   0.000000   0.000000   0.000000  
1274             609.890000 8.000000   0.000000   1000.000000 0.000000  
1275             614.890000 8.000000   0.000000   0.000000   0.000000  
1276             610.940000 8.000000   0.000000   1000.000000 0.000000  
1277             615.940000 8.000000   0.000000   0.000000   0.000000  
1278             613.600000 8.000000   0.000000   0.000000   0.000000  
1279             612.660000 8.000000   0.000000   0.000000   0.000000  
1280             611.400000 8.000000   0.000000   0.000000   0.000000  
1281             609.900000 8.000000   0.000000   0.000000   0.000000  
1282             608.400000 8.000000   0.000000   0.000000   0.000000  
1283             606.910000 8.000000   0.000000   0.000000   0.000000  
1284             613.740000 8.000000   0.000000   0.000000   0.000000  
1285             612.300000 8.000000   0.000000   0.000000   0.000000  
1286             610.860000 8.000000   0.000000   0.000000   0.000000  
1287             609.410000 8.000000   0.000000   0.000000   0.000000  
1288             607.390000 8.000000   0.000000   0.000000   0.000000  
1289             605.340000 8.000000   0.000000   0.000000   0.000000  
1290             557.900000 8.000000   0.000000   1000.000000 0.000000  
1291             591.830000 8.000000   0.000000   1000.000000 0.000000  
1292             596.830000 8.000000   0.000000   0.000000   0.000000  
1293             592.260000 8.000000   0.000000   0.000000   0.000000  
1294             586.440000 11.560000  0.000000   0.000000   0.000000  
1295             569.150000 17.450000  0.000000   0.000000   0.000000  
1296             609.000000 9.000000   0.000000   0.000000   0.000000  
1297             642.510000 8.000000   0.000000   0.000000   0.000000  
1298             643.280000 8.000000   0.000000   0.000000   0.000000  
1299             645.360000 8.000000   0.000000   0.000000   0.000000  
1300             647.830000 8.000000   0.000000   0.000000   0.000000  
1301             649.190000 8.000000   0.000000   0.000000   0.000000  
1302             607.160000 14.840000  0.000000   0.000000   0.000000  
1303             579.140000 11.360000  0.000000   0.000000   0.000000  
1304             589.350000 9.250000   0.000000   0.000000   0.000000  
1305             575.780000 13.920000  0.000000   0.000000   0.000000  
1306             539.280000 8.000000   0.000000   0.000000   0.000000  
1307             532.110000 19.700000  0.000000   0.000000   0.000000  
1308             631.680000 10.140000  0.000000   0.000000   0.000000  
1310             557.160000 10.000000  0.000000   1000.000000 0.000000  
1311             562.160000 10.000000  0.000000   0.000000   0.000000  
1312             561.270000 10.000000  0.000000   0.000000   0.000000  
1313             561.050000 10.000000  0.000000   0.000000   0.000000  
1314             559.620000 10.000000  0.000000   0.000000   0.000000  
1315             557.450000 10.000000  0.000000   0.000000   0.000000  
1316             555.260000 10.000000  0.000000   0.000000   0.000000  
1317             553.370000 10.000000  0.000000   0.000000   0.000000  
1318             551.920000 10.000000  0.000000   0.000000   0.000000  
1319             550.300000 10.000000  0.000000   0.000000   0.000000  
1320             550.090000 10.000000  0.000000   0.000000   0.000000  
1321             466.270000 14.730000  0.000000   0.000000   0.000000  
; MS11
1322             474.410000 10.290000  0.000000   0.000000   0.000000  
; MS11
1323             505.510000 14.890000  0.000000   0.000000   0.000000  
; MS11
1324             523.540000 11.460000  0.000000   0.000000   0.000000  
; MS11
1325             525.130000 8.870000   0.000000   0.000000   0.000000  
; MS11
1326             527.640000 8.860000   0.000000   0.000000   0.000000  
; MS11
1327             531.010000 8.490000   0.000000   0.000000   0.000000  
; MS11
1328             534.270000 11.030000  0.000000   0.000000   0.000000  
; MS11
1329             469.800000 4.200000   0.000000   1000.000000 0.000000  
; MS11
1330             460.130000 15.870000  0.000000   0.000000   0.000000  
; MS11
1331             460.430000 15.870000  0.000000   0.000000   0.000000  
; MS11
1332             460.730000 15.970000  0.000000   0.000000   0.000000  
; MS11
1333             461.060000 15.140000  0.000000   0.000000   0.000000  
; MS11
1334             461.690000 9.610000   0.000000   0.000000   0.000000  
; MS11
1335             462.740000 19.260000  0.000000   0.000000   0.000000  
; MS11
1336             463.790000 10.310000  0.000000   0.000000   0.000000  
; MS11
1337             464.840000 11.560000  0.000000   0.000000   0.000000  
; MS11
1338             465.910000 5.690000   0.000000   0.000000   0.000000  
; MS11
1339             468.410000 5.290000   0.000000   0.000000   0.000000  
; MS11
1340             470.910000 6.390000   0.000000   0.000000   0.000000  
; MS11
1341             482.950000 16.350000  0.000000   0.000000   0.000000  
; MS11
1342             484.450000 21.050000  0.000000   0.000000   0.000000  
; MS11
1343             485.280000 20.720000  0.000000   0.000000   0.000000  
; MS11
1344             486.790000 9.910000   0.000000   0.000000   0.000000  
; MS11
1345             488.330000 13.270000  0.000000   0.000000   0.000000  
; MS11
1346             499.470000 10.530000  0.000000   0.000000   0.000000  
; MS11
1347             518.100000 10.900000  0.000000   0.000000   0.000000  
; MS11
1348             519.880000 19.120000  0.000000   0.000000   0.000000  
; MS11
1349             521.580000 19.920000  0.000000   0.000000   0.000000  
; MS11
1350             523.280000 15.020000  0.000000   0.000000   0.000000  
; MS11
1351             525.210000 15.590000  0.000000   0.000000   0.000000  
; MS11
1352             531.910000 17.290000  0.000000   0.000000   0.000000  
; MS11
1353             486.650000 4.950000   0.000000   0.000000   0.000000  
; MS11
1354             541.600000 9.500000   0.000000   0.000000   0.000000  
; MS11
1355             549.000000 10.500000  0.000000   0.000000   0.000000  
; MS11
1356             551.360000 19.340000  0.000000   0.000000   0.000000  
; MS11
1357             553.060000 7.240000   0.000000   0.000000   0.000000  
; MS11
1358             559.480000 6.120000   0.000000   0.000000   0.000000  
; MS11
1359             567.790000 9.010000   0.000000   0.000000   0.000000  
; MS11
1360             569.420000 19.080000  0.000000   0.000000   0.000000  
; MS11
1361             572.700000 7.900000   0.000000   0.000000   0.000000  
; MS11
1362             599.520000 5.280000   0.000000   0.000000   0.000000  
; MS11
1363             598.750000 7.250000   0.000000   0.000000   0.000000  
; MS11
1364             584.720000 9.280000   0.000000   0.000000   0.000000  
; MS11
1365             583.360000 8.640000   0.000000   0.000000   0.000000  
; MS11
1366             583.000000 8.700000   0.000000   0.000000   0.000000  
; MS11
1367             582.030000 16.770000  0.000000   0.000000   0.000000  
; MS11
1368             580.550000 19.850000  0.000000   0.000000   0.000000  
; MS11
1369             579.530000 14.070000  0.000000   0.000000   0.000000  
; MS11
1370             578.820000 11.180000  0.000000   0.000000   0.000000  
; MS11
1371             578.360000 11.640000  0.000000   0.000000   0.000000  
; MS11
1372             573.850000 9.550000   0.000000   0.000000   0.000000  
; MS11
1373             567.430000 11.770000  0.000000   0.000000   0.000000  
; MS11
1374             565.310000 16.490000  0.000000   0.000000   0.000000  
; MS11
1375             564.910000 16.890000  0.000000   0.000000   0.000000  
; MS11
1376             556.150000 22.550000  0.000000   0.000000   0.000000  
; MS11
1377             560.530000 12.470000  0.000000   0.000000   0.000000  
; MS11
1378             553.400000 11.600000  0.000000   0.000000   0.000000  
; MS11
1379             464.610000 8.690000   0.000000   0.000000   0.000000  
; MS11
1380             468.740000 6.960000   0.000000   0.000000   0.000000  
; MS11
1381             472.870000 6.430000   0.000000   0.000000   0.000000  
; MS11
1382             477.000000 7.300000   0.000000   0.000000   0.000000  
; MS11
1383             480.710000 19.690000  0.000000   0.000000   0.000000  
; MS11
1384             497.640000 19.060000  0.000000   0.000000   0.000000  
; MS11
1385             498.640000 3.360000   0.000000   0.000000   0.000000  
; MS11
1386             505.420000 13.380000  0.000000   0.000000   0.000000  
; MS11
1387             525.900000 5.800000   0.000000   0.000000   0.000000  
; MS11
1388             528.940000 16.060000  0.000000   0.000000   0.000000  
; MS11
1389             530.700000 17.800000  0.000000   0.000000   0.000000  
; MS11
1390             532.370000 18.130000  0.000000   0.000000   0.000000  
; MS11
1391             533.270000 7.730000   0.000000   0.000000   0.000000  
; MS11
1392             535.820000 5.380000   0.000000   0.000000   0.000000  
; MS11
1393             537.120000 14.680000  0.000000   0.000000   0.000000  
; MS11
1394             537.670000 21.630000  0.000000   0.000000   0.000000  
; MS11