[TITLE]
;;Project Title/Notes
Scenario Run :  BASE

[OPTIONS]
;;Option             Value
FLOW_UNITS           CFS
INFILTRATION         HORTON
FLOW_ROUTING         DYNWAVE
LINK_OFFSETS         DEPTH
MIN_SLOPE            0
ALLOW_PONDING        YES
SKIP_STEADY_STATE    NO

START_DATE           01/01/1900
START_TIME           00:00:00
REPORT_START_DATE    01/01/1900
REPORT_START_TIME    00:00:00
END_DATE             01/03/1900
END_TIME             00:00:00
SWEEP_START          01/01
SWEEP_END            12/31
DRY_DAYS             0.000000
REPORT_STEP          00:05:00
WET_STEP             00:06:00
DRY_STEP             00:06:00
ROUTING_STEP         0:00:30 

INERTIAL_DAMPING     NONE
NORMAL_FLOW_LIMITED  BOTH
FORCE_MAIN_EQUATION  H-W
VARIABLE_STEP        0.75
LENGTHENING_STEP     5
MIN_SURFAREA         12.557
MAX_TRIALS           4
HEAD_TOLERANCE       0.005000
SYS_FLOW_TOL         5
LAT_FLOW_TOL         5
MINIMUM_STEP         0
THREADS              1

[EVAPORATION]
;;Data Source    Parameters
;;-------------- ----------------
CONSTANT         0.0
DRY_ONLY         NO

[JUNCTIONS]
;;Name           Elevation  MaxDepth   InitDepth  SurDepth   Aponded   
;;-------------- ---------- ---------- ---------- ---------- ----------
0-1              8627.500000 6.700000   0.000000   0.000000   0.000000  
0-10             8671.930000 6.970000   0.000000   0.000000   0.000000  
0-10A            8674.300000 9.430000   0.000000   0.000000   0.000000  
0-11             8677.520000 7.080000   0.000000   0.000000   0.000000  
0-12             8681.250000 8.250000   0.000000   0.000000   0.000000  
0-13             8682.540000 8.960000   0.000000   0.000000   0.000000  
0-14             8683.470000 10.530000  0.000000   0.000000   0.000000  
0-15             8684.650000 12.350000  0.000000   0.000000   0.000000  
0-16             8685.510000 4.390000   0.000000   0.000000   0.000000  
0-17             8686.880000 8.620000   0.000000   0.000000   0.000000  
0-18             8688.070000 10.930000  0.000000   0.000000   0.000000  
0-18A            8688.300000 12.000000  0.000000   0.000000   0.000000  
0-18B            8688.900000 12.100000  0.000000   0.000000   0.000000  
0-19             8689.260000 11.740000  0.000000   0.000000   0.000000  
0-1A             8627.000000 8.000000   0.000000   0.000000   0.000000  
0-1B             8626.750000 8.250000   0.000000   0.000000   0.000000  
0-1C             8626.000000 9.000000   0.000000   0.000000   0.000000  
0-2              8628.160000 7.340000   0.000000   0.000000   0.000000  
0-20             8690.680000 9.900000   0.000000   0.000000   0.000000  
0-21             8691.940000 10.900000  0.000000   0.000000   0.000000  
0-22             8693.210000 6.550000   0.000000   0.000000   0.000000  
0-23             8697.740000 6.450000   0.000000   0.000000   0.000000  
0-24             8702.490000 5.050000   0.000000   0.000000   0.000000  
0-24A            8704.000000 8.000000   0.000000   0.000000   0.000000  
0-25             8708.570000 13.050000  0.000000   0.000000   0.000000  
0-26             8711.740000 12.050000  0.000000   0.000000   0.000000  
0-27             8715.160000 11.700000  0.000000   0.000000   0.000000  
0-28             8718.010000 10.750000  0.000000   0.000000   0.000000  
0-29             8718.810000 9.700000   0.000000   0.000000   0.000000  
0-3              8634.800000 5.700000   0.000000   0.000000   0.000000  
0-30             8720.850000 6.250000   0.000000   0.000000   0.000000  
0-30A            8721.440000 8.450000   0.000000   0.000000   0.000000  
0-30B            8721.300000 7.900000   0.000000   0.000000   0.000000  
0-31             8721.850000 9.470000   0.000000   0.000000   0.000000  
0-32             8724.380000 12.420000  0.000000   0.000000   0.000000  
0-32A            8727.020000 11.600000  0.000000   0.000000   0.000000  
0-33             8733.390000 8.610000   0.000000   0.000000   0.000000  
0-34             8737.300000 8.070000   0.000000   0.000000   0.000000  
0-34A            8740.400000 5.600000   0.000000   0.000000   0.000000  
0-35             8741.100000 5.090000   0.000000   0.000000   0.000000  
0-36             8742.650000 4.500000   0.000000   0.000000   0.000000  
0-37             8745.070000 5.640000   0.000000   0.000000   0.000000  
0-38             8745.900000 11.750000  0.000000   0.000000   0.000000  
0-38R            8757.190000 5.960000   0.000000   0.000000   0.000000  
0-3A             8635.000000 5.000000   0.000000   0.000000   0.000000  
0-3B             8797.700000 8.310000   0.000000   0.000000   0.000000  
0-3C             8808.520000 7.740000   0.000000   0.000000   0.000000  
0-4              8636.810000 8.190000   0.000000   0.000000   0.000000  
0-5              8814.810000 8.960000   0.000000   0.000000   0.000000  
0-5A             8821.720000 11.990000  0.000000   0.000000   0.000000  
0-5BR            8827.440000 10.990000  0.000000   0.000000   0.000000  
0-5_DUP          8642.520000 7.980000   0.000000   0.000000   0.000000  
0-6              8646.970000 7.830000   0.000000   0.000000   0.000000  
0-7              8652.630000 7.570000   0.000000   0.000000   0.000000  
0-8              8658.390000 7.610000   0.000000   0.000000   0.000000  
0-9              8665.070000 6.930000   0.000000   0.000000   0.000000  
0-R1             8768.610000 8.390000   0.000000   0.000000   0.000000  
0-R2             8779.460000 6.840000   0.000000   0.000000   0.000000  
0-R3             8792.000000 8.600000   0.000000   0.000000   0.000000  
0-R4             8796.950000 8.560000   0.000000   0.000000   0.000000  
B-1              8696.930000 8.070000   0.000000   0.000000   0.000000  
B-10             8730.490000 7.510000   0.000000   0.000000   0.000000  
B-11             8733.700000 7.300000   0.000000   0.000000   0.000000  
B-12             8735.700000 7.300000   0.000000   0.000000   0.000000  
B-13             8738.500000 6.500000   0.000000   0.000000   0.000000  
B-13A            8741.360000 6.640000   0.000000   0.000000   0.000000  
B-14             8742.400000 6.600000   0.000000   0.000000   0.000000  
B-15             8745.710000 9.340000   0.000000   0.000000   0.000000  
B-16R            8747.010000 11.030000  0.000000   0.000000   0.000000  
B-16RA           8748.690000 10.160000  0.000000   0.000000   0.000000  
B-16RB           8752.220000 8.030000   0.000000   0.000000   0.000000  
B-17R            8754.750000 7.280000   0.000000   0.000000   0.000000  
B-18             8757.420000 8.080000   0.000000   0.000000   0.000000  
B-19             8759.700000 7.790000   0.000000   0.000000   0.000000  
B-2              8700.850000 8.150000   0.000000   0.000000   0.000000  
B-20             8762.200000 9.890000   0.000000   0.000000   0.000000  
B-21             8763.750000 9.760000   0.000000   0.000000   0.000000  
B-22             8766.940000 9.480000   0.000000   0.000000   0.000000  
B-2A             8701.100000 8.200000   0.000000   0.000000   0.000000  
B-3              8705.240000 7.900000   0.000000   0.000000   0.000000  
B-4              8708.660000 8.340000   0.000000   0.000000   0.000000  
B-5              8712.570000 9.430000   0.000000   0.000000   0.000000  
B-6              8716.080000 8.920000   0.000000   0.000000   0.000000  
B-7              8719.350000 9.650000   0.000000   0.000000   0.000000  
B-8              8722.410000 7.590000   0.000000   0.000000   0.000000  
B-9              8726.710000 8.290000   0.000000   0.000000   0.000000  
BMFC             8767.160000 10.840000  0.000000   0.000000   0.000000  
BUFFALO_MT       8770.100000 7.900000   0.000000   0.000000   0.000000  
DILLON           8831.000000 9.000000   0.000000   0.000000   0.000000  
DILLON_VALLEY    8831.000000 9.000000   0.000000   0.000000   0.000000  
DVFV             8830.000000 10.000000  0.000000   0.000000   0.000000  
MESA_CORTINA     8770.100000 7.900000   0.000000   0.000000   0.000000  
T-5C             8770.000000 8.000000   0.000000   0.000000   0.000000  

[OUTFALLS]
;;Name           Elevation  Type       Stage Data       Gated    Route To        
;;-------------- ---------- ---------- ---------------- -------- ----------------
O-WWTP           8625.900000 FREE                        NO                       

[CONDUITS]
;;Name           From Node        To Node          Length     Roughness  InOffset   OutOffset  InitFlow   MaxFlow   
;;-------------- ---------------- ---------------- ---------- ---------- ---------- ---------- ---------- ----------
0-1-0-1A/24      0-1              0-1A             170.591856 0.013000   0.000000   0.000000   0.000000   0.000000  
0-10-0-9/24/ACP  0-10             0-9              496.110406 0.013000   0.000000   0.000000   0.000000   0.000000  
0-10A-0-10/24/ACP 0-10A            0-10             201.918849 0.013000   0.000000   0.000000   0.000000   0.000000  
0-11-0-10A/24/ACP 0-11             0-10A            295.761896 0.013000   0.000000   0.000000   0.000000   0.000000  
0-12-0-11/24/ACP 0-12             0-11             492.604164 0.013000   0.000000   0.000000   0.000000   0.000000  
0-13-0-12/24/ACP 0-13             0-12             471.982611 0.013000   0.000000   0.000000   0.000000   0.000000  
0-14-0-13/24/ACP 0-14             0-13             447.789774 0.013000   0.000000   0.000000   0.000000   0.000000  
0-15-0-14/24/ACP 0-15             0-14             457.259386 0.013000   0.000000   0.000000   0.000000   0.000000  
0-16-0-15/24/ACP 0-16             0-15             456.741392 0.013000   0.000000   0.000000   0.000000   0.000000  
0-17-0-16/24/ACP 0-17             0-16             452.859442 0.013000   0.000000   0.000000   0.000000   0.000000  
0-18-0-17/24/ACP 0-18             0-17             457.657376 0.013000   0.000000   0.000000   0.000000   0.000000  
0-18A-0-18/27/ACP 0-18A            0-18             88.567319  0.013000   0.000000   0.000000   0.000000   0.000000  
0-18B-0-18A/27/ACP 0-18B            0-18A            165.197576 0.013000   0.000000   0.000000   0.000000   0.000000  
0-19-0-18B/27/ACP 0-19             0-18B            205.692523 0.013000   0.000000   0.000000   0.000000   0.000000  
0-1A-0-1B/24     0-1A             0-1B             87.604957  0.013000   0.000000   0.000000   0.000000   0.000000  
0-1B-0-1C/24/    0-1B             0-1C             60.615638  0.013000   0.000000   0.160000   0.000000   0.000000  
0-2-0-1/24/ACP   0-2              0-1              80.266302  0.013000   0.000000   0.000000   0.000000   0.000000  
0-20-0-19/27/ACP 0-20             0-19             456.583495 0.013000   0.000000   0.000000   0.000000   0.000000  
0-21-0-20/18/DIP 0-21             0-20             57.382437  0.013000   0.000000   0.000000   0.000000   0.000000  
0-22-0-21/18/DIP 0-22             0-21             296.518163 0.013000   0.000000   0.000000   0.000000   0.000000  
0-23-0-22/15/DIP 0-23             0-22             399.759188 0.013000   0.000000   0.000000   0.000000   0.000000  
0-24-0-23/15/DIP 0-24             0-23             427.281183 0.013000   0.000000   0.000000   0.000000   0.000000  
0-24A-0-24/15/DIP 0-24A            0-24             108.011447 0.013000   0.000000   0.000000   0.000000   0.000000  
0-25-0-24A/15/DIP 0-25             0-24A            120.664846 0.013000   0.000000   0.000000   0.000000   0.000000  
0-26-0-25/15/DIP 0-26             0-25             308.979599 0.013000   0.000000   0.000000   0.000000   0.000000  
0-27-0-26/15/DIP 0-27             0-26             350.914817 0.013000   0.000000   0.000000   0.000000   0.000000  
0-28-0-27/15/DIP 0-28             0-27             270.021472 0.013000   0.000000   0.000000   0.000000   0.000000  
0-29-0-28/15/DIP 0-29             0-28             77.199439  0.013000   0.000000   0.000000   0.000000   0.000000  
0-3-0-2/24/ACP   0-3              0-2              501.790368 0.013000   0.000000   0.000000   0.000000   0.000000  
0-30-0-29/15/DIP 0-30             0-29             196.117092 0.013000   0.000000   0.000000   0.000000   0.000000  
0-30A-0-30B/15/VCP 0-30A            0-30B            82.604840  0.011000   0.000000   0.000000   0.000000   0.000000  
0-30B-0-30/15/VCP 0-30B            0-30             224.436193 0.011000   0.000000   0.000000   0.000000   0.000000  
0-31-0-30A/15/VCP 0-31             0-30A            123.642542 0.011000   0.000000   0.000000   0.000000   0.000000  
0-32-0-31/15/VCP 0-32             0-31             357.552844 0.011000   0.000000   0.000000   0.000000   0.000000  
0-32A-0-32/15/VCP 0-32A            0-32             143.565354 0.011000   0.000000   0.000000   0.000000   0.000000  
0-33-0-32A/15/VCP 0-33             0-32A            252.638879 0.011000   0.000000   0.000000   0.000000   0.000000  
0-34-0-33/15/VCP 0-34             0-33             393.741179 0.011000   0.000000   0.000000   0.000000   0.000000  
0-36-0-35/15/VCP 0-36             0-35             319.244053 0.011000   0.000000   0.000000   0.000000   0.000000  
0-37-0-36/15/VCP 0-37             0-36             326.371170 0.011000   0.000000   0.000000   0.000000   0.000000  
0-38-0-37/15/VCP 0-38             0-37             250.814336 0.011000   0.000000   0.000000   0.000000   0.000000  
0-38R-0-38/15/VCP 0-38R            0-38             80.992067  0.011000   0.000000   0.000000   0.000000   0.000000  
0-3A-0-3/24/ACP  0-3A             0-3              58.682117  0.013000   0.000000   0.000000   0.000000   0.000000  
0-3B-0-R4/18/VCP 0-3B             0-R4             339.945980 0.011000   0.000000   0.000000   0.000000   0.000000  
0-3C-0-3B/20/VCP 0-3C             0-3B             396.265738 0.011000   0.000000   0.000000   0.000000   0.000000  
0-4-0-3A/24/ACP  0-4              0-3A             437.535985 0.013000   0.000000   0.000000   0.000000   0.000000  
0-5-0-3C/20/VCP  0-5              0-3C             246.723615 0.011000   0.000000   0.000000   0.000000   0.000000  
0-5-0-4/24/ACP   0-5_DUP          0-4              506.839144 0.013000   0.000000   0.000000   0.000000   0.000000  
0-5A-0-5/20/VCP  0-5A             0-5              684.767944 0.013000   0.000000   0.000000   0.000000   0.000000  
0-5BR-0-5A/20/VCP 0-5BR            0-5A             342.763215 0.013000   0.000000   0.000000   0.000000   0.000000  
0-6-0-5/24/ACP   0-6              0-5_DUP          496.697320 0.013000   0.000000   0.000000   0.000000   0.000000  
0-7-0-6/24/ACP   0-7              0-6              497.863688 0.013000   0.000000   0.000000   0.000000   0.000000  
0-8-0-7/24/ACP   0-8              0-7              496.104553 0.013000   0.000000   0.000000   0.000000   0.000000  
0-9-0-8/24/ACP   0-9              0-8              497.658612 0.013000   0.000000   0.000000   0.000000   0.000000  
0-R1-0-38R/15/VCP 0-R1             0-38R            380.555682 0.011000   0.000000   0.000000   0.000000   0.000000  
0-R2-0-R1/15/VCP 0-R2             0-R1             422.935727 0.011000   0.000000   0.000000   0.000000   0.000000  
0-R3-0-R2/15/VCP 0-R3             0-R2             399.364554 0.011000   0.000000   0.000000   0.000000   0.000000  
0-R4-0-R3/15/VCP 0-R4             0-R3             89.337357  0.011000   0.000000   0.000000   0.000000   0.000000  
B-1-0-20/18/VCP  B-1              0-20             383.191542 0.011000   0.000000   5.070000   0.000000   0.000000  
B-10-B-9/18/VCP  B-10             B-9              302.526338 0.011000   0.000000   0.000000   0.000000   0.000000  
B-11-B-10/18/VCP B-11             B-10             423.886234 0.011000   0.000000   0.000000   0.000000   0.000000  
B-12-B-11/18/VCP B-12             B-11             234.594653 0.011000   0.000000   0.000000   0.000000   0.000000  
B-13-B-12/18/VCP B-13             B-12             346.654380 0.011000   0.000000   0.000000   0.000000   0.000000  
B-13A-B-13/18/VCP B-13A            B-13             194.407019 0.010000   0.000000   0.000000   0.000000   0.000000  
B-14-B-1A3/18/VCP B-14             B-13A            140.782362 0.010000   0.000000   0.000000   0.000000   0.000000  
B-15-B-14/18/VCP B-15             B-14             321.371065 0.010000   0.000000   0.000000   0.000000   0.000000  
B-16R-B-15/18/VCP B-16R            B-15             102.765197 0.010000   0.000000   0.000000   0.000000   0.000000  
B-16RA-B-16R/18/PVC B-16RA           B-16R            146.854741 0.010000   0.000000   0.000000   0.000000   0.000000  
B-16RB-B-16RA/18/PVC B-16RB           B-16RA           299.787733 0.010000   0.000000   0.000000   0.000000   0.000000  
B-17R-B-16B/18/PVC B-17R            B-16RB           209.454305 0.010000   0.000000   0.000000   0.000000   0.000000  
B-18-B-17R/18/VCP B-18             B-17R            153.417804 0.011000   0.000000   0.000000   0.000000   0.000000  
B-19-B-18/15/VCP B-19             B-18             167.615004 0.011000   0.000000   0.000000   0.000000   0.000000  
B-2-B-1/18/VCP   B-2              B-1              504.429934 0.011000   0.000000   0.000000   0.000000   0.000000  
B-20-B-19/15/VCP B-20             B-19             259.869370 0.011000   0.000000   0.000000   0.000000   0.000000  
B-21-B-20/15/VCP B-21             B-20             125.274602 0.011000   0.000000   0.000000   0.000000   0.000000  
B-22-B-21        B-22             B-21             96.516726  0.011000   0.000000   0.000000   0.000000   0.000000  
B-2A-B-2/18/VCP  B-2A             B-2              29.620893  0.011000   0.000000   0.000000   0.000000   0.000000  
B-3-B-2A/18/VCP  B-3              B-2A             446.743537 0.011000   0.000000   0.000000   0.000000   0.000000  
B-4-B-3/18/VCP   B-4              B-3              470.888223 0.011000   0.000000   0.000000   0.000000   0.000000  
B-5-B-4/18/VCP   B-5              B-4              387.428969 0.011000   0.000000   0.000000   0.000000   0.000000  
B-6-B-5/18/VCP   B-6              B-5              363.695611 0.011000   0.000000   0.000000   0.000000   0.000000  
B-7-B-6/18/VCP   B-7              B-6              341.802410 0.011000   0.000000   0.000000   0.000000   0.000000  
B-8-B-7/18/VCP   B-8              B-7              280.134241 0.011000   0.000000   0.000000   0.000000   0.000000  
B-9-8/18/VCP     B-9              B-8              350.831853 0.011000   0.000000   0.000000   0.000000   0.000000  
BMFV-B-22        BMFC             B-22             80.372698  0.010000   0.000000   0.000000   0.000000   0.000000  
BUFFALLO_MT      BUFFALO_MT       T-5C             5.000000   0.013000   0.000000   0.000000   0.000000   0.000000  
DILLION_VALLEY   DILLON_VALLEY    DVFV             10.000000  0.013000   0.000000   0.000000   0.000000   0.000000  
DILLON           DILLON           DVFV             10.000000  0.013000   0.000000   0.000000   0.000000   0.000000  
DVFV-0-5BR/20/VCP DVFV             0-5BR            243.278061 0.013000   0.000000   0.000000   0.000000   0.000000  
MESA_CORTINA     MESA_CORTINA     T-5C             5.000000   0.013000   0.000000   0.000000   0.000000   0.000000  
P-89             0-35             0-34A            59.329057  0.011000   0.000000   0.000000   0.000000   0.000000  
P-90             0-34A            0-34             264.983983 0.011000   0.000000   0.000000   0.000000   0.000000  
P-WWTP           0-1C             O-WWTP           38.540593  0.010000   0.000000   0.000000   0.000000   0.000000  
T-5C-BMFV        T-5C             BMFC             41.042096  0.010000   0.000000   0.000000   0.000000   0.000000  

[XSECTIONS]
;;Link           Shape        Geom1            Geom2      Geom3      Geom4      Barrels    Culvert   
;;-------------- ------------ ---------------- ---------- ---------- ---------- ---------- ----------
0-1-0-1A/24      CIRCULAR     2.000000         0.000000   0.000000   0.000000   1          0         
0-10-0-9/24/ACP  CIRCULAR     2.000000         0.000000   0.000000   0.000000   1          0         
0-10A-0-10/24/ACP CIRCULAR     2.000000         0.000000   0.000000   0.000000   1          0         
0-11-0-10A/24/ACP CIRCULAR     2.000000         0.000000   0.000000   0.000000   1          0         
0-12-0-11/24/ACP CIRCULAR     2.000000         0.000000   0.000000   0.000000   1          0         
0-13-0-12/24/ACP CIRCULAR     2.250000         0.000000   0.000000   0.000000   1          0         
0-14-0-13/24/ACP CIRCULAR     2.250000         0.000000   0.000000   0.000000   1          0         
0-15-0-14/24/ACP CIRCULAR     2.250000         0.000000   0.000000   0.000000   1          0         
0-16-0-15/24/ACP CIRCULAR     2.250000         0.000000   0.000000   0.000000   1          0         
0-17-0-16/24/ACP CIRCULAR     2.250000         0.000000   0.000000   0.000000   1          0         
0-18-0-17/24/ACP CIRCULAR     2.250000         0.000000   0.000000   0.000000   1          0         
0-18A-0-18/27/ACP CIRCULAR     2.250000         0.000000   0.000000   0.000000   1          0         
0-18B-0-18A/27/ACP CIRCULAR     2.250000         0.000000   0.000000   0.000000   1          0         
0-19-0-18B/27/ACP CIRCULAR     2.250000         0.000000   0.000000   0.000000   1          0         
0-1A-0-1B/24     CIRCULAR     2.000000         0.000000   0.000000   0.000000   1          0         
0-1B-0-1C/24/    CIRCULAR     2.000000         0.000000   0.000000   0.000000   1          0         
0-2-0-1/24/ACP   CIRCULAR     2.000000         0.000000   0.000000   0.000000   1          0         
0-20-0-19/27/ACP CIRCULAR     2.250000         0.000000   0.000000   0.000000   1          0         
0-21-0-20/18/DIP CIRCULAR     1.500000         0.000000   0.000000   0.000000   1          0         
0-22-0-21/18/DIP CIRCULAR     1.500000         0.000000   0.000000   0.000000   1          0         
0-23-0-22/15/DIP CIRCULAR     1.250000         0.000000   0.000000   0.000000   1          0         
0-24-0-23/15/DIP CIRCULAR     1.250000         0.000000   0.000000   0.000000   1          0         
0-24A-0-24/15/DIP CIRCULAR     1.250000         0.000000   0.000000   0.000000   1          0         
0-25-0-24A/15/DIP CIRCULAR     1.250000         0.000000   0.000000   0.000000   1          0         
0-26-0-25/15/DIP CIRCULAR     1.250000         0.000000   0.000000   0.000000   1          0         
0-27-0-26/15/DIP CIRCULAR     1.250000         0.000000   0.000000   0.000000   1          0         
0-28-0-27/15/DIP CIRCULAR     1.250000         0.000000   0.000000   0.000000   1          0         
0-29-0-28/15/DIP CIRCULAR     1.250000         0.000000   0.000000   0.000000   1          0         
0-3-0-2/24/ACP   CIRCULAR     2.000000         0.000000   0.000000   0.000000   1          0         
0-30-0-29/15/DIP CIRCULAR     1.250000         0.000000   0.000000   0.000000   1          0         
0-30A-0-30B/15/VCP CIRCULAR     1.250000         0.000000   0.000000   0.000000   1          0         
0-30B-0-30/15/VCP CIRCULAR     1.250000         0.000000   0.000000   0.000000   1          0         
0-31-0-30A/15/VCP CIRCULAR     1.250000         0.000000   0.000000   0.000000   1          0         
0-32-0-31/15/VCP CIRCULAR     1.250000         0.000000   0.000000   0.000000   1          0         
0-32A-0-32/15/VCP CIRCULAR     1.250000         0.000000   0.000000   0.000000   1          0         
0-33-0-32A/15/VCP CIRCULAR     1.250000         0.000000   0.000000   0.000000   1          0         
0-34-0-33/15/VCP CIRCULAR     1.250000         0.000000   0.000000   0.000000   1          0         
0-36-0-35/15/VCP CIRCULAR     1.250000         0.000000   0.000000   0.000000   1          0         
0-37-0-36/15/VCP CIRCULAR     1.250000         0.000000   0.000000   0.000000   1          0         
0-38-0-37/15/VCP CIRCULAR     1.250000         0.000000   0.000000   0.000000   1          0         
0-38R-0-38/15/VCP CIRCULAR     1.250000         0.000000   0.000000   0.000000   1          0         
0-3A-0-3/24/ACP  CIRCULAR     2.000000         0.000000   0.000000   0.000000   1          0         
0-3B-0-R4/18/VCP CIRCULAR     1.500000         0.000000   0.000000   0.000000   1          0         
0-3C-0-3B/20/VCP CIRCULAR     1.000000         0.000000   0.000000   0.000000   1          0         
0-4-0-3A/24/ACP  CIRCULAR     2.000000         0.000000   0.000000   0.000000   1          0         
0-5-0-3C/20/VCP  CIRCULAR     1.666667         0.000000   0.000000   0.000000   1          0         
0-5-0-4/24/ACP   CIRCULAR     2.000000         0.000000   0.000000   0.000000   1          0         
0-5A-0-5/20/VCP  CIRCULAR     1.666667         0.000000   0.000000   0.000000   1          0         
0-5BR-0-5A/20/VCP CIRCULAR     1.666667         0.000000   0.000000   0.000000   1          0         
0-6-0-5/24/ACP   CIRCULAR     2.000000         0.000000   0.000000   0.000000   1          0         
0-7-0-6/24/ACP   CIRCULAR     2.000000         0.000000   0.000000   0.000000   1          0         
0-8-0-7/24/ACP   CIRCULAR     2.000000         0.000000   0.000000   0.000000   1          0         
0-9-0-8/24/ACP   CIRCULAR     2.000000         0.000000   0.000000   0.000000   1          0         
0-R1-0-38R/15/VCP CIRCULAR     1.250000         0.000000   0.000000   0.000000   1          0         
0-R2-0-R1/15/VCP CIRCULAR     1.250000         0.000000   0.000000   0.000000   1          0         
0-R3-0-R2/15/VCP CIRCULAR     1.250000         0.000000   0.000000   0.000000   1          0         
0-R4-0-R3/15/VCP CIRCULAR     1.250000         0.000000   0.000000   0.000000   1          0         
B-1-0-20/18/VCP  CIRCULAR     1.500000         0.000000   0.000000   0.000000   1          0         
B-10-B-9/18/VCP  CIRCULAR     1.500000         0.000000   0.000000   0.000000   1          0         
B-11-B-10/18/VCP CIRCULAR     1.500000         0.000000   0.000000   0.000000   1          0         
B-12-B-11/18/VCP CIRCULAR     1.500000         0.000000   0.000000   0.000000   1          0         
B-13-B-12/18/VCP CIRCULAR     1.500000         0.000000   0.000000   0.000000   1          0         
B-13A-B-13/18/VCP CIRCULAR     1.500000         0.000000   0.000000   0.000000   1          0         
B-14-B-1A3/18/VCP CIRCULAR     1.500000         0.000000   0.000000   0.000000   1          0         
B-15-B-14/18/VCP CIRCULAR     1.500000         0.000000   0.000000   0.000000   1          0         
B-16R-B-15/18/VCP CIRCULAR     1.500000         0.000000   0.000000   0.000000   1          0         
B-16RA-B-16R/18/PVC CIRCULAR     1.500000         0.000000   0.000000   0.000000   1          0         
B-16RB-B-16RA/18/PVC CIRCULAR     1.500000         0.000000   0.000000   0.000000   1          0         
B-17R-B-16B/18/PVC CIRCULAR     1.500000         0.000000   0.000000   0.000000   1          0         
B-18-B-17R/18/VCP CIRCULAR     1.500000         0.000000   0.000000   0.000000   1          0         
B-19-B-18/15/VCP CIRCULAR     1.250000         0.000000   0.000000   0.000000   1          0         
B-2-B-1/18/VCP   CIRCULAR     1.500000         0.000000   0.000000   0.000000   1          0         
B-20-B-19/15/VCP CIRCULAR     1.250000         0.000000   0.000000   0.000000   1          0         
B-21-B-20/15/VCP CIRCULAR     1.250000         0.000000   0.000000   0.000000   1          0         
B-22-B-21        CIRCULAR     1.250000         0.000000   0.000000   0.000000   1          0         
B-2A-B-2/18/VCP  CIRCULAR     1.500000         0.000000   0.000000   0.000000   1          0         
B-3-B-2A/18/VCP  CIRCULAR     1.500000         0.000000   0.000000   0.000000   1          0         
B-4-B-3/18/VCP   CIRCULAR     1.500000         0.000000   0.000000   0.000000   1          0         
B-5-B-4/18/VCP   CIRCULAR     1.500000         0.000000   0.000000   0.000000   1          0         
B-6-B-5/18/VCP   CIRCULAR     1.500000         0.000000   0.000000   0.000000   1          0         
B-7-B-6/18/VCP   CIRCULAR     1.500000         0.000000   0.000000   0.000000   1          0         
B-8-B-7/18/VCP   CIRCULAR     1.500000         0.000000   0.000000   0.000000   1          0         
B-9-8/18/VCP     CIRCULAR     1.500000         0.000000   0.000000   0.000000   1          0         
BMFV-B-22        CIRCULAR     1.250000         0.000000   0.000000   0.000000   1          0         
BUFFALLO_MT      CIRCULAR     1.000000         0.000000   0.000000   0.000000   1          0         
DILLION_VALLEY   CIRCULAR     0.833333         0.000000   0.000000   0.000000   1          0         
DILLON           CIRCULAR     1.000000         0.000000   0.000000   0.000000   1          0         
DVFV-0-5BR/20/VCP CIRCULAR     1.333333         0.000000   0.000000   0.000000   1          0         
MESA_CORTINA     CIRCULAR     1.000000         0.000000   0.000000   0.000000   1          0         
P-89             CIRCULAR     1.250000         0.000000   0.000000   0.000000   1          0         
P-90             CIRCULAR     1.250000         0.000000   0.000000   0.000000   1          0         
P-WWTP           CIRCULAR     2.500000         0.000000   0.000000   0.000000   1          0         
T-5C-BMFV        CIRCULAR     1.000000         0.000000   0.000000   0.000000   1          0         

[LOSSES]
;;Link           Kentry     Kexit      Kavg       Flap Gate  Seepage   
;;-------------- ---------- ---------- ---------- ---------- ----------
0-1-0-1A/24      0.000000   0.000000   0.000000   NO         0.000000  
0-10-0-9/24/ACP  0.000000   0.000000   0.000000   NO         0.000000  
0-10A-0-10/24/ACP 0.000000   0.000000   0.000000   NO         0.000000  
0-11-0-10A/24/ACP 0.000000   0.000000   0.000000   NO         0.000000  
0-12-0-11/24/ACP 0.000000   0.000000   0.000000   NO         0.000000  
0-13-0-12/24/ACP 0.000000   0.000000   0.000000   NO         0.000000  
0-14-0-13/24/ACP 0.000000   0.000000   0.000000   NO         0.000000  
0-15-0-14/24/ACP 0.000000   0.000000   0.000000   NO         0.000000  
0-16-0-15/24/ACP 0.000000   0.000000   0.000000   NO         0.000000  