[TITLE]
Scenario Run :  BASE

[OPTIONS]
;Option and Files Scenario Set: BASE, Base Simulation Options
FLOW_UNITS	CFS
INFILTRATION	HORTON
FLOW_ROUTING	DYNWAVE
ALLOW_PONDING	NO
DRY_DAYS	0.000000
SKIP_STEADY_STATE 	NO
IGNORE_RAINFALL	NO
IGNORE_SNOWMELT	NO
IGNORE_GROUNDWATER	NO
IGNORE_QUALITY	NO
FORCE_MAIN_EQUATION	H-W
LINK_OFFSETS	DEPTH
MIN_SLOPE	0.000000
SYS_FLOW_TOL	5
LAT_FLOW_TOL	5
TEMPDIR	"C:\Users\Mark.Pachlhofer\AppData\Local\Temp\"
START_DATE	1-1-2000
START_TIME	0:0:0
END_DATE	1-2-2000
END_TIME	0:0:0
REPORT_START_DATE	1-1-2000
REPORT_START_TIME	0:0:0
SWEEP_START	1/1
SWEEP_END	1/1
WET_STEP	00:15:00
DRY_STEP	01:00:00
ROUTING_STEP	30
REPORT_STEP	00:06:00
INERTIAL_DAMPING	NONE
VARIABLE_STEP	0.000000
MINIMUM_STEP	0.500000
LENGTHENING_STEP	0
MIN_SURFAREA	0.000000
NORMAL_FLOW_LIMITED	BOTH
MAX_TRIALS	8
HEAD_TOLERANCE	0.005000

[FILES]

[RAINGAGES]

[HYDROGRAPHS]

[TEMPERATURE]

[ADJUSTMENTS]

[SUBCATCHMENTS]

[SUBAREAS]

[INFILTRATION]

[AQUIFERS]

[GROUNDWATER]

[GWF]

[SNOWPACKS]

[JUNCTIONS]
0045	913.900370	11.920000	0.000000	0.000000	0.000000
0046	916.160000	9.833470	0.000000	0.000000	0.000000
0047	911.502410	6.670000	0.000000	0.000000	0.000000
0048	909.696510	7.250000	0.000000	0.000000	0.000000
0049	908.723650	8.080000	0.000000	0.000000	0.000000
0072	923.340840	12.170000	0.000000	0.000000	0.000000
0073	940.468570	18.580000	0.000000	0.000000	0.000000
0074	941.041310	22.080000	0.000000	0.000000	0.000000
0075	942.080830	9.330000	0.000000	0.000000	0.000000
0120	893.839490	9.830000	0.000000	0.000000	0.000000
0121	892.961490	12.080000	0.000000	0.000000	0.000000
0286	975.654900	8.580000	0.000000	0.000000	0.000000
0287	964.619130	16.080000	0.000000	0.000000	0.000000
0288	976.072190	22.920000	0.000000	0.000000	0.000000
0289	985.802840	18.420000	0.000000	0.000000	0.000000
0290	974.330320	10.750000	0.000000	0.000000	0.000000
0291	975.252830	18.330000	0.000000	0.000000	0.000000
0292	975.768390	25.500000	0.000000	0.000000	0.000000
0293	963.170020	21.170000	0.000000	0.000000	0.000000
0294	988.122510	10.750000	0.000000	0.000000	0.000000
0295	965.440000	16.137090	0.000000	0.000000	0.000000
0296	984.814800	12.250000	0.000000	0.000000	0.000000
0297	966.141820	14.000000	0.000000	0.000000	0.000000
0298	961.810000	8.021743	0.000000	0.000000	0.000000
0299	965.150000	9.774915	0.000000	0.000000	0.000000
0300	958.940000	12.351440	0.000000	0.000000	0.000000
0301	937.590000	12.223192	0.000000	0.000000	0.000000
0302	960.270000	16.882040	0.000000	0.000000	0.000000
0303	960.800000	14.960080	0.000000	0.000000	0.000000
0304	962.850000	14.046840	0.000000	0.000000	0.000000
0305	963.950000	16.437640	0.000000	0.000000	0.000000
0356	947.096020	9.330000	0.000000	0.000000	0.000000
0387	904.347370	10.500000	0.000000	0.000000	0.000000
0388	879.843220	11.080000	0.000000	0.000000	0.000000
0389	923.270480	14.170000	0.000000	0.000000	0.000000
0395	896.216110	10.920000	0.000000	0.000000	0.000000
0396	895.525062	14.462437	0.000000	0.000000	0.000000
0403	928.952320	10.580000	0.000000	0.000000	0.000000
0404	917.171320	10.420000	0.000000	0.000000	0.000000
0405	922.843250	10.250000	0.000000	0.000000	0.000000
0406	899.016710	9.000000	0.000000	0.000000	0.000000
0407	905.222400	10.830000	0.000000	0.000000	0.000000
0408	899.420780	6.000000	0.000000	0.000000	0.000000
0409	896.940000	9.343390	0.000000	0.000000	0.000000
0410	940.558550	11.170000	0.000000	0.000000	0.000000
0435	913.057770	13.080000	0.000000	0.000000	0.000000
0436	903.764100	10.670000	0.000000	0.000000	0.000000
0440	902.560000	20.190570	0.000000	0.000000	0.000000
0442	903.340360	10.330000	0.000000	0.000000	0.000000
0445	895.280000	13.293310	0.000000	0.000000	0.000000
0446	896.352880	10.420000	0.000000	0.000000	0.000000
0447	896.450000	11.703092	0.000000	0.000000	0.000000
0448	896.710000	13.669134	0.000000	0.000000	0.000000
0450	899.190000	10.843908	0.000000	0.000000	0.000000
0451	900.109370	11.000000	0.000000	0.000000	0.000000
0452	902.115230	18.250000	0.000000	0.000000	0.000000
0454	897.870000	11.427502	0.000000	0.000000	0.000000
0455	878.872910	14.080000	0.000000	0.000000	0.000000
0457	874.909960	26.250000	0.000000	0.000000	0.000000
0458	886.100000	9.810117	0.000000	0.000000	0.000000
0459	885.820000	10.228030	0.000000	0.000000	0.000000
0460	885.180000	10.345670	0.000000	0.000000	0.000000
0461	884.500000	14.075840	0.000000	0.000000	0.000000
0478	916.235750	10.330000	0.000000	0.000000	0.000000
0479	900.260310	11.500000	0.000000	0.000000	0.000000
0480	900.926440	18.330000	0.000000	0.000000	0.000000
0494	940.361390	15.170000	0.000000	0.000000	0.000000
0506	935.962600	14.920000	0.000000	0.000000	0.000000
0507	920.000000	12.997185	0.000000	0.000000	0.000000
0508	893.035360	12.420000	0.000000	0.000000	0.000000
0509	888.051580	12.920000	0.000000	0.000000	0.000000
0519	880.087360	10.500000	0.000000	0.000000	0.000000
0520	909.656280	15.670000	0.000000	0.000000	0.000000
0521	870.857959	9.170000	0.000000	0.000000	0.000000
0547	881.610000	10.934572	0.000000	0.000000	0.000000
0548	900.601928	20.330000	0.000000	0.000000	0.000000
0549	904.558418	11.330000	0.000000	0.000000	0.000000
0550	922.322476	7.500000	0.000000	0.000000	0.000000
0551	900.171894	23.250000	0.000000	0.000000	0.000000
0552	897.107740	12.000000	0.000000	0.000000	0.000000
0553	892.582500	10.500000	0.000000	0.000000	0.000000
0554	876.303640	17.670000	0.000000	0.000000	0.000000
0555	876.688710	12.750000	0.000000	0.000000	0.000000
0556	877.387260	11.250000	0.000000	0.000000	0.000000
0557	877.658464	13.580000	0.000000	0.000000	0.000000
0558	877.109485	16.420000	0.000000	0.000000	0.000000
0559	876.450289	16.920000	0.000000	0.000000	0.000000
0560	875.977784	16.170000	0.000000	0.000000	0.000000
0561	860.274200	11.580000	0.000000	0.000000	0.000000
0562	897.803570	11.000000	0.000000	0.000000	0.000000
0563	923.848011	12.500000	0.000000	0.000000	0.000000
0564	910.301407	11.750000	0.000000	0.000000	0.000000
0565	907.638402	11.080000	0.000000	0.000000	0.000000
0566	898.365320	8.500000	0.000000	0.000000	0.000000
0567	859.630000	9.289981	0.000000	0.000000	0.000000
0568	859.090000	8.720815	0.000000	0.000000	0.000000
0569	852.900000	15.624294	0.000000	0.000000	0.000000
0597	924.272230	14.420000	0.000000	0.000000	0.000000
0598	930.932543	12.750000	0.000000	0.000000	0.000000
0599	925.286170	9.000000	0.000000	0.000000	0.000000
0600	895.051458	12.830000	0.000000	0.000000	0.000000
0601	903.780000	15.869050	0.000000	0.000000	0.000000
0602	882.253280	17.170000	0.000000	0.000000	0.000000
0603	885.800280	19.920000	0.000000	0.000000	0.000000
0604	892.895200	22.330000	0.000000	0.000000	0.000000
0605	888.292808	15.000000	0.000000	0.000000	0.000000
0606	890.135449	20.500000	0.000000	0.000000	0.000000
0607	904.238360	15.500000	0.000000	0.000000	0.000000
0608	894.311840	14.080000	0.000000	0.000000	0.000000
0609	865.514764	21.420000	0.000000	0.000000	0.000000
0611	879.201370	21.920000	0.000000	0.000000	0.000000
0612	888.430260	7.000000	0.000000	0.000000	0.000000
0613	883.004800	10.670000	0.000000	0.000000	0.000000
0614	896.262050	14.750000	0.000000	0.000000	0.000000
0615	900.158830	11.250000	0.000000	0.000000	0.000000
0616	900.450000	13.038050	0.000000	0.000000	0.000000
0617	904.032300	16.000000	0.000000	0.000000	0.000000
0618	910.070860	6.750000	0.000000	0.000000	0.000000
0619	910.392819	11.750000	0.000000	0.000000	0.000000
0620	914.326870	12.500000	0.000000	0.000000	0.000000
0621	913.191430	10.250000	0.000000	0.000000	0.000000
0627	890.255570	10.750000	0.000000	0.000000	0.000000
0628	888.097940	20.170000	0.000000	0.000000	0.000000
0629	882.610000	8.170600	0.000000	0.000000	0.000000
0630	889.400660	10.920000	0.000000	0.000000	0.000000
0631	895.503260	10.750000	0.000000	0.000000	0.000000
0632	895.229130	9.500000	0.000000	0.000000	0.000000
0633	904.712680	10.920000	0.000000	0.000000	0.000000
0634	906.095740	10.670000	0.000000	0.000000	0.000000
0635	908.267010	12.330000	0.000000	0.000000	0.000000
0636	901.790790	10.330000	0.000000	0.000000	0.000000
0637	908.449760	11.250000	0.000000	0.000000	0.000000
0638	908.018259	17.080000	0.000000	0.000000	0.000000
0639	908.310000	18.591679	0.000000	0.000000	0.000000
0640	907.140000	13.895456	0.000000	0.000000	0.000000
0641	906.199300	17.250000	0.000000	0.000000	0.000000
0642	918.283060	14.000000	0.000000	0.000000	0.000000
0643	906.533979	18.500000	0.000000	0.000000	0.000000
0644	905.703850	15.250000	0.000000	0.000000	0.000000
0645	878.853210	9.330000	0.000000	0.000000	0.000000
0646	877.886160	8.830000	0.000000	0.000000	0.000000
0647	876.350000	14.450424	0.000000	0.000000	0.000000
0648	875.980000	10.178240	0.000000	0.000000	0.000000
0649	875.040000	10.526400	0.000000	0.000000	0.000000
0650	874.559090	12.170000	0.000000	0.000000	0.000000
0651	874.220000	10.170632	0.000000	0.000000	0.000000
0652	907.221020	16.080000	0.000000	0.000000	0.000000
0653	878.689030	10.670000	0.000000	0.000000	0.000000
0654	873.979380	8.330000	0.000000	0.000000	0.000000
0662	912.358470	14.330000	0.000000	0.000000	0.000000
0712	918.234360	11.000000	0.000000	0.000000	0.000000
0713	916.273500	12.830000	0.000000	0.000000	0.000000
0714	915.296970	12.670000	0.000000	0.000000	0.000000
0715	913.443240	12.580000	0.000000	0.000000	0.000000
0716	900.942000	13.000000	0.000000	0.000000	0.000000
0717	894.279020	13.250000	0.000000	0.000000	0.000000
0718	888.500820	11.670000	0.000000	0.000000	0.000000
0724	911.668510	10.420000	0.000000	0.000000	0.000000
0725	907.302770	12.250000	0.000000	0.000000	0.000000
0732	912.430290	11.080000	0.000000	0.000000	0.000000
0733	910.059470	10.500000	0.000000	0.000000	0.000000
0734	915.848790	11.170000	0.000000	0.000000	0.000000
0835	873.963750	10.080000	0.000000	0.000000	0.000000
0836	883.940620	10.830000	0.000000	0.000000	0.000000
0847	907.280000	9.673629	0.000000	0.000000	0.000000
0848	908.430000	14.316963	0.000000	0.000000	0.000000
0849	925.989725	11.750000	0.000000	0.000000	0.000000
0850	926.433281	15.250000	0.000000	0.000000	0.000000
0851	936.265600	9.170000	0.000000	0.000000	0.000000
0853	913.185710	13.080000	0.000000	0.000000	0.000000
0854	910.680000	13.106143	0.000000	0.000000	0.000000
0858	975.319580	9.920000	0.000000	0.000000	0.000000
0859	928.613170	10.250000	0.000000	0.000000	0.000000
0860	922.363750	12.500000	0.000000	0.000000	0.000000
0861	944.752370	10.580000	0.000000	0.000000	0.000000
0862	938.844530	11.250000	0.000000	0.000000	0.000000
0863	933.140700	10.830000	0.000000	0.000000	0.000000
0864	923.194890	10.000000	0.000000	0.000000	0.000000
0865	922.697210	11.580000	0.000000	0.000000	0.000000
0866	960.704350	9.830000	0.000000	0.000000	0.000000
0867	951.997600	13.670000	0.000000	0.000000	0.000000
0868	952.876410	10.920000	0.000000	0.000000	0.000000
0869	953.543390	9.250000	0.000000	0.000000	0.000000
0870	952.260000	9.748209	0.000000	0.000000	0.000000
0871	950.638990	10.670000	0.000000	0.000000	0.000000
0872	949.901260	10.500000	0.000000	0.000000	0.000000
0873	978.226490	12.170000	0.000000	0.000000	0.000000
0874	933.245190	10.670000	0.000000	0.000000	0.000000
0875	948.763020	10.830000	0.000000	0.000000	0.000000
0885	926.397110	10.420000	0.000000	0.000000	0.000000
0886	929.234770	10.580000	0.000000	0.000000	0.000000
0887	925.373630	11.250000	0.000000	0.000000	0.000000
0888	924.081450	11.500000	0.000000	0.000000	0.000000
0889	921.259300	13.580000	0.000000	0.000000	0.000000
0890	930.194170	10.500000	0.000000	0.000000	0.000000
0891	938.040100	9.670000	0.000000	0.000000	0.000000
0892	945.019550	10.000000	0.000000	0.000000	0.000000
0893	939.981510	11.830000	0.000000	0.000000	0.000000
0894	908.050540	11.500000	0.000000	0.000000	0.000000
0895	903.500000	10.229259	0.000000	0.000000	0.000000
0896	901.833230	10.580000	0.000000	0.000000	0.000000
0897	899.116950	10.000000	0.000000	0.000000	0.000000
0898	882.020000	7.772283	0.000000	0.000000	0.000000
0899	880.872890	10.000000	0.000000	0.000000	0.000000
0900	892.069160	12.080000	0.000000	0.000000	0.000000
0901	893.561380	10.170000	0.000000	0.000000	0.000000
0902	886.826670	10.080000	0.000000	0.000000	0.000000
0903	893.978540	9.080000	0.000000	0.000000	0.000000
0904	903.440000	9.945836	0.000000	0.000000	0.000000
0905	911.033190	10.670000	0.000000	0.000000	0.000000
0906	917.907460	9.670000	0.000000	0.000000	0.000000
0907	944.471670	10.670000	0.000000	0.000000	0.000000
0908	932.926450	11.580000	0.000000	0.000000	0.000000
0909	948.000860	9.330000	0.000000	0.000000	0.000000
0910	953.380110	9.750000	0.000000	0.000000	0.000000
0911	953.692630	12.250000	0.000000	0.000000	0.000000
0912	948.523060	11.000000	0.000000	0.000000	0.000000
0913	950.355710	11.750000	0.000000	0.000000	0.000000
0914	915.873130	10.500000	0.000000	0.000000	0.000000
0915	963.951600	10.830000	0.000000	0.000000	0.000000
0916	950.630560	12.580000	0.000000	0.000000	0.000000
0917	955.812730	12.750000	0.000000	0.000000	0.000000
0918	955.315100	11.500000	0.000000	0.000000	0.000000
0919	955.943600	12.670000	0.000000	0.000000	0.000000
0920	924.129550	8.750000	0.000000	0.000000	0.000000
0921	928.986850	9.830000	0.000000	0.000000	0.000000
0922	935.164350	11.330000	0.000000	0.000000	0.000000
0925	935.233480	10.420000	0.000000	0.000000	0.000000
0926	945.458620	14.000000	0.000000	0.000000	0.000000
0931	926.648840	13.250000	0.000000	0.000000	0.000000
0932	926.880350	12.420000	0.000000	0.000000	0.000000
0936	927.190000	10.219819	0.000000	0.000000	0.000000
0939	949.136280	13.170000	0.000000	0.000000	0.000000
0940	944.327510	10.830000	0.000000	0.000000	0.000000
0941	951.700000	10.027163	0.000000	0.000000	0.000000
0942	959.828400	10.500000	0.000000	0.000000	0.000000
0943	952.082120	14.000000	0.000000	0.000000	0.000000
0944	948.668360	15.500000	0.000000	0.000000	0.000000
0945	946.963980	14.170000	0.000000	0.000000	0.000000
0951	877.363880	10.250000	0.000000	0.000000	0.000000
0954	902.612710	9.250000	0.000000	0.000000	0.000000
0955	898.220760	9.580000	0.000000	0.000000	0.000000
0956	875.663250	10.250000	0.000000	0.000000	0.000000
0957	874.216780	13.330000	0.000000	0.000000	0.000000
0961	874.738470	15.500000	0.000000	0.000000	0.000000
0962	875.242980	13.330000	0.000000	0.000000	0.000000
0963	877.421450	11.500000	0.000000	0.000000	0.000000
0964	898.785760	10.830000	0.000000	0.000000	0.000000
0965	898.272680	10.080000	0.000000	0.000000	0.000000
0966	896.174140	9.920000	0.000000	0.000000	0.000000
0967	893.927880	10.330000	0.000000	0.000000	0.000000
0968	886.980000	10.073525	0.000000	0.000000	0.000000
0972	897.612410	9.750000	0.000000	0.000000	0.000000
0973	902.808810	9.830000	0.000000	0.000000	0.000000
0974	900.510000	8.941391	0.000000	0.000000	0.000000
0975	907.782990	9.500000	0.000000	0.000000	0.000000
0976	910.034540	11.580000	0.000000	0.000000	0.000000
0977	920.046640	9.750000	0.000000	0.000000	0.000000
0978	939.028570	10.830000	0.000000	0.000000	0.000000
0979	948.618900	10.080000	0.000000	0.000000	0.000000
0980	955.041690	9.670000	0.000000	0.000000	0.000000
0981	961.012060	9.750000	0.000000	0.000000	0.000000
0982	966.525850	9.500000	0.000000	0.000000	0.000000
0983	969.772070	12.670000	0.000000	0.000000	0.000000
0984	912.100000	11.596550	0.000000	0.000000	0.000000
0985	919.592760	10.170000	0.000000	0.000000	0.000000
0986	924.944300	7.420000	0.000000	0.000000	0.000000
0987	930.600000	7.829875	0.000000	0.000000	0.000000
0988	932.901100	9.500000	0.000000	0.000000	0.000000
0989	941.100000	9.794724	0.000000	0.000000	0.000000
0990	921.688440	12.580000	0.000000	0.000000	0.000000
0991	963.200000	13.928028	0.000000	0.000000	0.000000
0992	964.780940	15.000000	0.000000	0.000000	0.000000
0993	967.410890	14.330000	0.000000	0.000000	0.000000
0994	965.300000	11.200500	0.000000	0.000000	0.000000
0995	933.155200	9.750000	0.000000	0.000000	0.000000
0996	935.800000	10.949219	0.000000	0.000000	0.000000
0997	884.851400	9.500000	0.000000	0.000000	0.000000
1004	919.537490	25.000000	0.000000	0.000000	0.000000
1005	918.463630	16.500000	0.000000	0.000000	0.000000
1028	925.297020	10.500000	0.000000	0.000000	0.000000
1030	961.543200	10.250000	0.000000	0.000000	0.000000
1057	975.989000	10.500000	0.000000	0.000000	0.000000
1058	962.536770	9.580000	0.000000	0.000000	0.000000
1059	957.011090	12.420000	0.000000	0.000000	0.000000
1060	950.686750	9.920000	0.000000	0.000000	0.000000
1061	957.087940	10.750000	0.000000	0.000000	0.000000
1062	947.124170	10.670000	0.000000	0.000000	0.000000
1063	946.352320	10.250000	0.000000	0.000000	0.000000
1064	960.473280	7.830000	0.000000	0.000000	0.000000
1065	943.080000	10.771866	0.000000	0.000000	0.000000
1066	938.773500	10.420000	0.000000	0.000000	0.000000
1067	937.185880	10.420000	0.000000	0.000000	0.000000
1068	934.690000	11.237608	0.000000	0.000000	0.000000
1069	932.669550	10.580000	0.000000	0.000000	0.000000
1074	960.760000	13.129940	0.000000	0.000000	0.000000
1075	940.752540	11.420000	0.000000	0.000000	0.000000
1076	938.117370	10.750000	0.000000	0.000000	0.000000
1077	937.288510	16.580000	0.000000	0.000000	0.000000
1078	935.443000	24.580000	0.000000	0.000000	0.000000
1079	942.935280	10.170000	0.000000	0.000000	0.000000
1080	934.181680	10.250000	0.000000	0.000000	0.000000
1081	960.785790	10.330000	0.000000	0.000000	0.000000
1082	948.205610	10.250000	0.000000	0.000000	0.000000
1083	941.469120	10.580000	0.000000	0.000000	0.000000
1084	936.903740	10.750000	0.000000	0.000000	0.000000
1085	933.530000	9.397940	0.000000	0.000000	0.000000
1086	934.120000	11.863430	0.000000	0.000000	0.000000
1087	934.660000	16.305500	0.000000	0.000000	0.000000
1088	926.560000	11.603820	0.000000	0.000000	0.000000
1089	922.480000	15.617700	0.000000	0.000000	0.000000
1090	921.350000	12.055588	0.000000	0.000000	0.000000
1091	921.040000	10.408879	0.000000	0.000000	0.000000
1092	919.810000	11.262410	0.000000	0.000000	0.000000
1093	911.790000	7.398381	0.000000	0.000000	0.000000
1094	932.585360	10.170000	0.000000	0.000000	0.000000
1095	918.000000	12.539959	0.000000	0.000000	0.000000
1096	923.510000	21.121512	0.000000	0.000000	0.000000
1097	924.218450	8.830000	0.000000	0.000000	0.000000
1098	931.072560	9.670000	0.000000	0.000000	0.000000
1102	926.197880	9.830000	0.000000	0.000000	0.000000
1103	931.032030	7.500000	0.000000	0.000000	0.000000
1118	923.982390	10.920000	0.000000	0.000000	0.000000
1119	921.630220	10.000000	0.000000	0.000000	0.000000
1123	941.000880	10.830000	0.000000	0.000000	0.000000
1124	936.126950	11.170000	0.000000	0.000000	0.000000
1125	919.840000	15.098175	0.000000	0.000000	0.000000
1126	922.208470	8.420000	0.000000	0.000000	0.000000
1127	919.834140	12.330000	0.000000	0.000000	0.000000
1128	919.174480	11.080000	0.000000	0.000000	0.000000
1129	921.772880	10.750000	0.000000	0.000000	0.000000
1130	925.146190	9.750000	0.000000	0.000000	0.000000
1131	932.570000	11.996231	0.000000	0.000000	0.000000
1132	934.000000	11.458530	0.000000	0.000000	0.000000
1133	934.930000	9.762587	0.000000	0.000000	0.000000
1134	918.111220	10.420000	0.000000	0.000000	0.000000
1135	915.581440	9.750000	0.000000	0.000000	0.000000
1136	908.231060	13.500000	0.000000	0.000000	0.000000
1137	913.363370	10.170000	0.000000	0.000000	0.000000
1138	916.483550	10.170000	0.000000	0.000000	0.000000
1139	917.397970	10.330000	0.000000	0.000000	0.000000
1140	918.617510	10.170000	0.000000	0.000000	0.000000
1141	920.374000	10.080000	0.000000	0.000000	0.000000
1142	957.441350	10.250000	0.000000	0.000000	0.000000
1143	927.183820	9.170000	0.000000	0.000000	0.000000
1144	925.191990	10.170000	0.000000	0.000000	0.000000
1145	921.846250	10.250000	0.000000	0.000000	0.000000
1146	898.211150	9.830000	0.000000	0.000000	0.000000
1147	897.340000	14.913842	0.000000	0.000000	0.000000
1148	902.106770	10.830000	0.000000	0.000000	0.000000
1149	904.858670	12.580000	0.000000	0.000000	0.000000
1150	906.688870	13.250000	0.000000	0.000000	0.000000
1151	945.917440	13.500000	0.000000	0.000000	0.000000
1152	925.767310	16.500000	0.000000	0.000000	0.000000
1153	954.562520	10.250000	0.000000	0.000000	0.000000
1154	941.162160	11.750000	0.000000	0.000000	0.000000
1155	942.095790	12.170000	0.000000	0.000000	0.000000
1156	952.953410	10.170000	0.000000	0.000000	0.000000
1157	951.900000	11.358949	0.000000	0.000000	0.000000
1158	954.645230	10.000000	0.000000	0.000000	0.000000
1159	911.260840	7.580000	0.000000	0.000000	0.000000
1160	956.887800	11.080000	0.000000	0.000000	0.000000
1161	960.285680	10.830000	0.000000	0.000000	0.000000
1225	943.218760	9.500000	0.000000	0.000000	0.000000
1226	951.090130	9.830000	0.000000	0.000000	0.000000
1227	954.168230	11.750000	0.000000	0.000000	0.000000
1228	953.468870	9.830000	0.000000	0.000000	0.000000
1229	952.390420	10.000000	0.000000	0.000000	0.000000
1230	949.982010	10.750000	0.000000	0.000000	0.000000
1231	955.952550	10.750000	0.000000	0.000000	0.000000
1232	962.800670	10.000000	0.000000	0.000000	0.000000
1233	959.834490	8.920000	0.000000	0.000000	0.000000
1234	956.011560	10.580000	0.000000	0.000000	0.000000
1235	955.140000	9.963521	0.000000	0.000000	0.000000
1236	951.380260	11.000000	0.000000	0.000000	0.000000
1237	979.076910	9.920000	0.000000	0.000000	0.000000
1238	959.990000	10.764579	0.000000	0.000000	0.000000
1239	959.390000	10.377664	0.000000	0.000000	0.000000
1240	956.740000	10.343058	0.000000	0.000000	0.000000
1241	957.173110	9.250000	0.000000	0.000000	0.000000
1242	953.541950	10.420000	0.000000	0.000000	0.000000
1243	952.759840	11.250000	0.000000	0.000000	0.000000
1244	952.102000	11.080000	0.000000	0.000000	0.000000
1245	966.696570	12.670000	0.000000	0.000000	0.000000
1246	953.580000	11.187907	0.000000	0.000000	0.000000
1247	954.810240	11.000000	0.000000	0.000000	0.000000
1311	922.070000	12.427450	0.000000	0.000000	0.000000
1312	923.010000	10.363980	0.000000	0.000000	0.000000
1313	930.793790	10.500000	0.000000	0.000000	0.000000
1314	935.629450	10.420000	0.000000	0.000000	0.000000
1315	942.220840	10.170000	0.000000	0.000000	0.000000
1316	934.150000	10.082730	0.000000	0.000000	0.000000
1317	925.010000	10.240070	0.000000	0.000000	0.000000
1318	936.011870	12.250000	0.000000	0.000000	0.000000
1348	937.146240	10.170000	0.000000	0.000000	0.000000
1349	941.139800	10.420000	0.000000	0.000000	0.000000
1350	947.490700	11.170000	0.000000	0.000000	0.000000
1354	884.350000	9.561055	0.000000	0.000000	0.000000
1355	891.329940	13.000000	0.000000	0.000000	0.000000
1356	902.129630	10.500000	0.000000	0.000000	0.000000
1357	896.850000	22.493870	0.000000	0.000000	0.000000
1358	922.776940	9.670000	0.000000	0.000000	0.000000
1367	919.272560	11.000000	0.000000	0.000000	0.000000
1545	901.856050	14.920000	0.000000	0.000000	0.000000
1546	902.230000	14.322836	0.000000	0.000000	0.000000
1556	930.163840	6.500000	0.000000	0.000000	0.000000
1557	953.821350	10.750000	0.000000	0.000000	0.000000
1558	960.680000	5.718215	0.000000	0.000000	0.000000
1559	959.754170	5.920000	0.000000	0.000000	0.000000
1560	957.966600	7.920000	0.000000	0.000000	0.000000
1561	956.552220	11.750000	0.000000	0.000000	0.000000
1562	958.631860	13.750000	0.000000	0.000000	0.000000
1566	955.669190	17.330000	0.000000	0.000000	0.000000
1567	954.470000	16.623296	0.000000	0.000000	0.000000
1568	971.207230	12.000000	0.000000	0.000000	0.000000
1570	963.800000	17.817740	0.000000	0.000000	0.000000
1571	953.000000	11.936515	0.000000	0.000000	0.000000
1572	958.130750	11.170000	0.000000	0.000000	0.000000
1573	957.511870	12.750000	0.000000	0.000000	0.000000
1574	956.981250	20.330000	0.000000	0.000000	0.000000
1575	956.768490	23.000000	0.000000	0.000000	0.000000
1576	956.230170	23.420000	0.000000	0.000000	0.000000
1577	951.825690	21.420000	0.000000	0.000000	0.000000
1578	951.930000	16.175517	0.000000	0.000000	0.000000
1579	953.790000	11.953208	0.000000	0.000000	0.000000
1580	955.410530	13.330000	0.000000	0.000000	0.000000
1581	968.638690	13.500000	0.000000	0.000000	0.000000
1582	948.832060	10.750000	0.000000	0.000000	0.000000
1583	945.070000	10.058037	0.000000	0.000000	0.000000
1584	959.250000	16.731115	0.000000	0.000000	0.000000
1585	969.900720	11.670000	0.000000	0.000000	0.000000
1586	930.730000	12.841206	0.000000	0.000000	0.000000
1587	931.870000	8.285700	0.000000	0.000000	0.000000
1588	932.800000	7.460329	0.000000	0.000000	0.000000
1589	938.823410	18.420000	0.000000	0.000000	0.000000
1591	957.260000	11.865173	0.000000	0.000000	0.000000
1592	929.450000	12.490298	0.000000	0.000000	0.000000
1593	932.558640	9.670000	0.000000	0.000000	0.000000
1594	933.877550	10.080000	0.000000	0.000000	0.000000
1595	964.720000	17.999040	0.000000	0.000000	0.000000
1596	965.960000	10.958970	0.000000	0.000000	0.000000
1597	972.100000	12.955189	0.000000	0.000000	0.000000
1598	973.716400	11.830000	0.000000	0.000000	0.000000
1599	960.283160	11.750000	0.000000	0.000000	0.000000
1600	928.240000	7.418562	0.000000	0.000000	0.000000
1601	909.430000	15.099090	0.000000	0.000000	0.000000
1602	929.757020	6.500000	0.000000	0.000000	0.000000
1603	930.912640	14.420000	0.000000	0.000000	0.000000
1610	882.248630	9.500000	0.000000	0.000000	0.000000
1611	879.801300	6.920000	0.000000	0.000000	0.000000
1614	877.990000	19.065126	0.000000	0.000000	0.000000
1615	878.720000	8.587423	0.000000	0.000000	0.000000
1616	879.390000	10.490260	0.000000	0.000000	0.000000
1623	898.410720	17.170000	0.000000	0.000000	0.000000
1624	896.269560	10.500000	0.000000	0.000000	0.000000
1625	897.855560	12.500000	0.000000	0.000000	0.000000
1626	915.053170	10.750000	0.000000	0.000000	0.000000
1627	895.543310	9.170000	0.000000	0.000000	0.000000
1628	907.021060	11.830000	0.000000	0.000000	0.000000
1629	920.033510	9.500000	0.000000	0.000000	0.000000
1630	879.352040	15.250000	0.000000	0.000000	0.000000
1631	876.744260	13.500000	0.000000	0.000000	0.000000
1632	875.768960	25.330000	0.000000	0.000000	0.000000
1633	899.894540	11.420000	0.000000	0.000000	0.000000
1634	895.402060	10.580000	0.000000	0.000000	0.000000
1635	890.240560	8.830000	0.000000	0.000000	0.000000
1636	882.593670	10.750000	0.000000	0.000000	0.000000
1637	882.095300	10.000000	0.000000	0.000000	0.000000
1638	871.519110	20.420000	0.000000	0.000000	0.000000
1639	872.485690	20.580000	0.000000	0.000000	0.000000
1640	886.007600	9.580000	0.000000	0.000000	0.000000
1641	870.040000	14.782764	0.000000	0.000000	0.000000
1648	874.080500	26.580000	0.000000	0.000000	0.000000
1668	927.360000	15.328519	0.000000	0.000000	0.000000
1669	928.781580	10.830000	0.000000	0.000000	0.000000
1670	937.639890	9.170000	0.000000	0.000000	0.000000
1671	946.335280	11.080000	0.000000	0.000000	0.000000
1672	928.836630	14.580000	0.000000	0.000000	0.000000
1673	928.538140	20.750000	0.000000	0.000000	0.000000
1674	924.353570	8.250000	0.000000	0.000000	0.000000
1675	903.119970	12.420000	0.000000	0.000000	0.000000
1676	900.765790	14.670000	0.000000	0.000000	0.000000
1677	942.909210	15.170000	0.000000	0.000000	0.000000
1678	942.071310	13.500000	0.000000	0.000000	0.000000
1679	899.078460	26.330000	0.000000	0.000000	0.000000
1680	929.280250	9.420000	0.000000	0.000000	0.000000
1681	897.755480	20.830000	0.000000	0.000000	0.000000
1682	944.620000	15.372827	0.000000	0.000000	0.000000
1683	943.805960	21.250000	0.000000	0.000000	0.000000
1684	908.091270	13.670000	0.000000	0.000000	0.000000
1685	880.240000	7.392724	0.000000	0.000000	0.000000
1686	880.870000	8.201896	0.000000	0.000000	0.000000
1687	926.471650	9.330000	0.000000	0.000000	0.000000
1688	882.590000	7.228615	0.000000	0.000000	0.000000
1689	883.890000	12.849137	0.000000	0.000000	0.000000
1690	885.082820	16.580000	0.000000	0.000000	0.000000
1691	885.870900	13.920000	0.000000	0.000000	0.000000
1692	904.610330	13.750000	0.000000	0.000000	0.000000
1693	917.692590	9.670000	0.000000	0.000000	0.000000
1694	922.137590	10.580000	0.000000	0.000000	0.000000
1695	926.247940	10.080000	0.000000	0.000000	0.000000
1696	935.660000	7.871157	0.000000	0.000000	0.000000
1697	941.140000	9.394380	0.000000	0.000000	0.000000
1698	949.510000	15.781753	0.000000	0.000000	0.000000
1699	953.270000	19.070432	0.000000	0.000000	0.000000
1700	940.079480	14.000000	0.000000	0.000000	0.000000
1701	956.985550	9.500000	0.000000	0.000000	0.000000
1702	965.049220	11.670000	0.000000	0.000000	0.000000
1703	956.260000	9.969407	0.000000	0.000000	0.000000
1704	886.280000	19.454214	0.000000	0.000000	0.000000
1705	888.070000	16.270698	0.000000	0.000000	0.000000
1706	889.020000	10.911268	0.000000	0.000000	0.000000
1707	893.420000	24.425828	0.000000	0.000000	0.000000
1708	918.240000	9.730896	0.000000	0.000000	0.000000
1709	929.140490	9.750000	0.000000	0.000000	0.000000
1710	944.495260	9.750000	0.000000	0.000000	0.000000
1711	949.644100	9.420000	0.000000	0.000000	0.000000
1712	894.480000	11.062077	0.000000	0.000000	0.000000
1713	896.050000	10.329208	0.000000	0.000000	0.000000
1714	897.315140	10.830000	0.000000	0.000000	0.000000
1715	899.047380	8.670000	0.000000	0.000000	0.000000
1716	922.569570	11.170000	0.000000	0.000000	0.000000
1717	933.264850	10.500000	0.000000	0.000000	0.000000
1718	916.180000	12.561745	0.000000	0.000000	0.000000
1719	913.982550	10.420000	0.000000	0.000000	0.000000
1720	902.151480	14.420000	0.000000	0.000000	0.000000
1721	902.126500	15.920000	0.000000	0.000000	0.000000
1722	924.590590	9.750000	0.000000	0.000000	0.000000
1723	925.187190	9.670000	0.000000	0.000000	0.000000
1724	948.120000	9.467165	0.000000	0.000000	0.000000
1725	928.927420	21.420000	0.000000	0.000000	0.000000
1726	921.260000	12.025540	0.000000	0.000000	0.000000
1727	920.070000	14.970401	0.000000	0.000000	0.000000
1728	919.710660	15.750000	0.000000	0.000000	0.000000
1729	907.050000	8.406430	0.000000	0.000000	0.000000
1730	937.620000	16.499896	0.000000	0.000000	0.000000
1731	942.055520	12.080000	0.000000	0.000000	0.000000
1732	932.690000	12.643476	0.000000	0.000000	0.000000
1734	914.970000	9.717052	0.000000	0.000000	0.000000
1735	887.050000	26.722560	0.000000	0.000000	0.000000
1736	907.590000	11.846040	0.000000	0.000000	0.000000
1737	943.601490	16.420000	0.000000	0.000000	0.000000
1738	932.181830	10.420000	0.000000	0.000000	0.000000
1829	918.940000	14.582920	0.000000	0.000000	0.000000
1833	914.840000	10.722931	0.000000	0.000000	0.000000
1836	907.940000	12.670633	0.000000	0.000000	0.000000
1837	887.560000	14.706944	0.000000	0.000000	0.000000
1838	886.003190	21.420000	0.000000	0.000000	0.000000
1839	884.425350	9.830000	0.000000	0.000000	0.000000