[TITLE]
;;Project Title/Notes

[OPTIONS]
;;Option             Value
FLOW_UNITS           CFS
INFILTRATION         HORTON
FLOW_ROUTING         DYNWAVE
LINK_OFFSETS         DEPTH
MIN_SLOPE            0
ALLOW_PONDING        NO
SKIP_STEADY_STATE    NO

START_DATE           01/01/2002
START_TIME           00:00:00
REPORT_START_DATE    01/01/2002
REPORT_START_TIME    00:00:00
END_DATE             01/01/2002
END_TIME             12:00:00
SWEEP_START          01/01
SWEEP_END            12/31
DRY_DAYS             5.000000
REPORT_STEP          00:30:00
WET_STEP             01:00:00
DRY_STEP             23:00:00
ROUTING_STEP         0:00:10 

INERTIAL_DAMPING     NONE
NORMAL_FLOW_LIMITED  BOTH
FORCE_MAIN_EQUATION  H-W
VARIABLE_STEP        0.75
LENGTHENING_STEP     0
MIN_SURFAREA         0
MAX_TRIALS           0
HEAD_TOLERANCE       0
SYS_FLOW_TOL         5
LAT_FLOW_TOL         5
MINIMUM_STEP         0.5
THREADS              1

[EVAPORATION]
;;Data Source    Parameters
;;-------------- ----------------
CONSTANT         0.0
DRY_ONLY         NO

[JUNCTIONS]
;;Name           Elevation  MaxDepth   InitDepth  SurDepth   Aponded   
;;-------------- ---------- ---------- ---------- ---------- ----------
;  1747
14-08540         1103.070000 17.150000  0.000000   0.000000   0.000000  
;  1749
14-08680         1097.570000 12.100000  0.000000   0.000000   0.000000  
;  1750
14-08850         1084.010000 12.120000  0.000000   0.000000   0.000000  
;  1751
14-09080         1070.600000 12.130000  0.000000   0.000000   0.000000  
;  1755
14-09250         1058.000000 15.200000  0.000000   0.000000   0.000000  
;  1753
14-09300         1063.200000 10.100000  0.000000   0.000000   0.000000  
;  1563
14-09370         554.790000 32.420000  0.000000   0.000000   0.000000  
;  1752
14-09460         1059.190000 12.240000  0.000000   0.000000   0.000000  
;  2201
14-09510         1044.120000 12.880000  0.000000   0.000000   0.000000  
;  2206
14-09540         1059.930000 17.150000  0.000000   0.000000   0.000000  
;  2207
14-09620         1074.610000 12.110000  0.000000   0.000000   0.000000  
;  2210
14-09700         1100.880000 13.420000  0.000000   0.000000   0.000000  
;  1841
14-09730         554.910000 35.990000  0.000000   0.000000   0.000000  
;  2208
14-09760         1085.530000 14.770000  0.000000   0.000000   0.000000  
;  2200
14-09780         1030.170000 12.430000  0.000000   0.000000   0.000000  
;  2199
14-10060         1016.140000 12.860000  0.000000   0.000000   0.000000  
;  2198
14-10430         1002.740000 13.000000  0.000000   0.000000   0.000000  
;  2197
14-10580         999.900000 13.480000  0.000000   0.000000   0.000000  
;  2045
14-10590         794.290000 12.010000  0.000000   0.000000   0.000000  
;  2195
14-10750         998.780000 10.220000  0.000000   0.000000   0.000000  
;  2196
14-10810         996.630000 12.270000  0.000000   0.000000   0.000000  
;  1957
14-10860         779.320000 12.280000  0.000000   0.000000   0.000000  
;  2181
14-10940         994.600000 21.330000  0.000000   0.000000   0.000000  
;  2194
14-10970         995.780000 14.020000  0.000000   0.000000   0.000000  
;  1958
14-11110         763.730000 12.670000  0.000000   0.000000   0.000000  
;  1840
14-11120         555.870000 40.630000  0.000000   0.000000   0.000000  
;  2044
14-11200         798.240000 11.960000  0.000000   0.000000   0.000000  
;  1842
14-11250         556.040000 39.360000  0.000000   0.000000   0.000000  
;  1959
14-11280         750.700000 14.700000  0.000000   0.000000   0.000000  
;  2182
14-11300         986.210000 14.150000  0.000000   0.000000   0.000000  
;  1960
14-11370         750.120000 11.480000  0.000000   0.000000   0.000000  
;  2093
14-11450         980.300000 5.000000   0.000000   0.000000   0.000000  
;  1961
14-11660         748.440000 15.560000  0.000000   0.000000   0.000000  
;  2043
14-11740         802.280000 12.120000  0.000000   0.000000   0.000000  
;  2094
14-11820         967.180000 12.050000  0.000000   0.000000   0.000000  
;  2095
14-11970         953.440000 11.580000  0.000000   0.000000   0.000000  
;  2042
14-12140         806.290000 11.910000  0.000000   0.000000   0.000000  
;  1962
14-12160         745.970000 20.630000  0.000000   0.000000   0.000000  
;  2096
14-12190         936.480000 11.440000  0.000000   0.000000   0.000000  
;  2098
14-12400         910.460000 15.620000  0.000000   0.000000   0.000000  
;  2097
14-12450         915.210000 14.720000  0.000000   0.000000   0.000000  
;  2041
14-12570         810.080000 12.120000  0.000000   0.000000   0.000000  
;  1963
14-12630         743.600000 22.600000  0.000000   0.000000   0.000000  
;  2039
14-12790         810.820000 13.010000  0.000000   0.000000   0.000000  
;  2099
14-12820         896.060000 16.050000  0.000000   0.000000   0.000000  
;  1843
14-12840         556.800000 36.730000  0.000000   0.000000   0.000000  
;  1839
14-13020         557.010000 36.990000  0.000000   0.000000   0.000000  
;  1964
14-13150         741.230000 17.170000  0.000000   0.000000   0.000000  
;  2176
14-13280         890.340000 10.760000  0.000000   0.000000   0.000000  
;  2038
14-13370         819.920000 13.080000  0.000000   0.000000   0.000000  
;  2035
14-13400         838.500000 12.500000  0.000000   0.000000   0.000000  
;  9272
14-13630         824.370000 13.680000  0.000000   0.000000   0.000000  
;  2100
14-13640         885.350000 12.130000  0.000000   0.000000   0.000000  
;  2034
14-13700         839.380000 13.080000  0.000000   0.000000   0.000000  
;  1918
14-13830         737.020000 11.780000  0.000000   0.000000   0.000000  
;  2037
14-13960         828.830000 11.900000  0.000000   0.000000   0.000000  
;  1838
14-14000         557.610000 34.390000  0.000000   0.000000   0.000000  
;  2033
14-14070         840.110000 10.690000  0.000000   0.000000   0.000000  
;  2101
14-14400         882.220000 12.110000  0.000000   0.000000   0.000000  
;  1919
14-14470         728.140000 11.660000  0.000000   0.000000   0.000000  
;  2102
14-14480         869.360000 12.290000  0.000000   0.000000   0.000000  
;  2103
14-14550         861.610000 12.280000  0.000000   0.000000   0.000000  
;  2104
14-14660         852.630000 12.430000  0.000000   0.000000   0.000000  
;  2032
14-14770         844.090000 12.510000  0.000000   0.000000   0.000000  
;  1920
14-15040         719.310000 11.490000  0.000000   0.000000   0.000000  
;  1921
14-15140         707.860000 18.040000  0.000000   0.000000   0.000000  
;  1922
14-15260         704.580000 13.820000  0.000000   0.000000   0.000000  
;  1923
14-15360         698.130000 12.270000  0.000000   0.000000   0.000000  
;  1930
14-15390         693.510000 15.190000  0.000000   0.000000   0.000000  
;  1924
14-15460         692.120000 10.170000  0.000000   0.000000   0.000000  
;  1894
14-15470         689.960000 10.980000  0.000000   0.000000   0.000000  
;  2555
14-16360         685.440000 16.240000  0.000000   100.000000 0.000000  
;  2428
14-16410         558.720000 23.780000  0.000000   0.000000   0.000000  
;  2435
14-16900         559.314000 19.686000  0.000000   0.000000   0.000000  
;  2554
14-17370         684.730000 17.320000  0.000000   0.000000   0.000000  
;  2489
14-17580         676.350000 14.210000  0.000000   0.000000   0.000000  
;  2490
14-17720         667.820000 14.540000  0.000000   0.000000   0.000000  
;  2491
14-17940         665.750000 15.080000  0.000000   0.000000   0.000000  
;  2492
14-18070         660.290000 14.260000  0.000000   0.000000   0.000000  
;  2495
14-18260         643.620000 16.300000  0.000000   0.000000   0.000000  
;  2493
14-18270         655.060000 15.610000  0.000000   0.000000   0.000000  
;  2457
14-18380         638.540000 16.100000  0.000000   0.000000   0.000000  
;  2494
14-18400         646.360000 16.430000  0.000000   0.000000   0.000000  
;  2456
14-18580         630.430000 16.730000  0.000000   0.000000   0.000000  
;  2477
14-18750         623.950000 14.650000  0.000000   0.000000   0.000000  
;  2455
14-18780         622.530000 14.490000  0.000000   0.000000   0.000000  
;  2479
14-18820         620.440000 13.960000  0.000000   0.000000   0.000000  
;  2454
14-18960         614.630000 12.670000  0.000000   0.000000   0.000000  
;  2453
14-19090         602.130000 13.370000  0.000000   0.000000   0.000000  
;  2451
14-19200         595.400000 14.200000  0.000000   0.000000   0.000000  
;  2452
14-19260         589.890000 14.310000  0.000000   0.000000   0.000000  
;  2427
14-19280         560.380000 14.620000  0.000000   0.000000   0.000000  
;  2429
14-19390         573.990000 10.210000  0.000000   0.000000   0.000000  
;  2426
14-19530         558.400000 18.600000  0.000000   0.000000   0.000000  
;  2430
14-19560         564.830000 12.120000  0.000000   0.000000   0.000000  

[OUTFALLS]
;;Name           Elevation  Type       Stage Data       Gated    Route To        
;;-------------- ---------- ---------- ---------------- -------- ----------------
WTP1             554.000000 FREE                        NO                       

[CONDUITS]
;;Name           From Node        To Node          Length     Roughness  InOffset   OutOffset  InitFlow   MaxFlow   
;;-------------- ---------------- ---------------- ---------- ---------- ---------- ---------- ---------- ----------
1018             14-12840         14-11250         773.970000 0.013000   0.110000   0.000000   0.000000   0.000000  
1022             14-11250         14-11120         94.890000  0.013000   0.000000   0.050000   0.000000   0.000000  
1062             14-19200         14-19260         148.120000 0.013000   0.000000   0.660000   0.000000   0.000000  
1104             14-19090         14-19200         226.880000 0.013000   0.000000   0.550000   0.000000   0.000000  
1207             14-18960         14-19090         395.520000 0.013000   0.000000   0.120000   0.000000   0.000000  
1270             14-18820         14-18960         290.300000 0.013000   0.000000   0.120000   0.000000   0.000000  
1291             14-18780         14-18820         105.700000 0.013000   0.000000   0.100000   0.000000   0.000000  
1305             14-18750         14-18780         76.370000  0.013000   0.000000   0.120000   0.000000   0.000000  
1406             14-18580         14-18750         318.630000 0.013000   0.000000   0.100000   0.000000   0.000000  
1498             14-18380         14-18580         394.770000 0.013000   0.000000   0.120000   0.000000   0.000000  
1582             14-18400         14-18260         127.040000 0.013000   0.000000   0.120000   0.000000   0.000000  
1658             14-18270         14-18400         402.850000 0.013000   0.000000   0.120000   0.000000   0.000000  
1701             14-18070         14-18270         253.000000 0.013000   0.000000   0.120000   0.000000   0.000000  
1748             14-17940         14-18070         252.740000 0.013000   0.000000   0.120000   0.000000   0.000000  
1764             14-17720         14-17940         96.010000  0.013000   0.000000   0.120000   0.000000   0.000000  
1862             14-17580         14-17720         395.100000 0.013000   0.000000   0.120000   0.000000   0.000000  
1941             14-16360         14-17370         354.000000 0.013000   0.000000   0.120000   0.000000   0.000000  
2174             14-15040         14-15140         209.100000 0.013000   0.000000   0.130000   0.000000   0.000000  
2246             14-14470         14-15040         359.000000 0.013000   0.000000   0.150000   0.000000   0.000000  
2326             14-13830         14-14470         358.000000 0.013000   0.000000   0.100000   0.000000   0.000000  
2445             14-12630         14-13150         358.000000 0.013000   0.000000   0.100000   0.000000   0.000000  
2500             14-12160         14-12630         358.000000 0.013000   0.000000   0.100000   0.000000   0.000000  
2574             14-11660         14-12160         374.460000 0.013000   0.000000   0.100000   0.000000   0.000000  
2662             14-11370         14-11660         363.210000 0.013000   0.000000   0.100000   0.000000   0.000000  
2694             14-11280         14-11370         113.000000 0.013000   0.000000   0.100000   0.000000   0.000000  
2759             14-11110         14-11280         269.000000 0.013000   0.000000   0.100000   0.000000   0.000000  
2895             14-10860         14-11110         371.330000 0.013000   0.000000   0.160000   0.000000   0.000000  
2987             14-11200         14-10590         295.000000 0.013000   0.000000   0.220000   0.000000   0.000000  
3048             14-11740         14-11200         300.000000 0.013000   0.000000   0.100000   0.000000   0.000000  
3108             14-12140         14-11740         300.000000 0.013000   0.000000   0.100000   0.000000   0.000000  
3178             14-12570         14-12140         292.060000 0.013000   0.000000   0.100000   0.000000   0.000000  
3212             14-12790         14-12570         164.000000 0.013000   0.000000   0.100000   0.000000   0.000000  
3285             14-13370         14-12790         304.000000 0.013000   0.000000   0.200000   0.000000   0.000000  
3320             14-13630         14-13370         148.990000 0.013000   0.000000   0.240000   0.000000   0.000000  
3355             14-13960         14-13630         146.690000 0.013000   0.000000   0.120000   0.000000   0.000000  
3420             14-13400         14-13960         304.060000 0.013000   0.000000   0.330000   0.000000   0.000000  
3452             14-13700         14-13400         170.000000 0.013000   0.000000   0.200000   0.000000   0.000000  
3468             14-14070         14-13700         168.560000 0.013000   0.000000   0.100000   0.000000   0.000000  
3478             14-14770         14-14070         265.440000 0.013000   0.000000   0.200000   0.000000   0.000000  
3595             14-14550         14-14660         300.130000 0.013000   0.000000   0.100000   0.000000   0.000000  
3673             14-14480         14-14550         262.050000 0.013000   0.000000   0.100000   0.000000   0.000000  
3727             14-12400         14-12820         217.490000 0.013000   0.000000   0.100000   0.000000   0.000000  
3737             14-12820         14-13280         192.110000 0.013000   0.000000   0.120000   0.000000   0.000000  
3742             14-13280         14-13640         143.450000 0.013000   0.000000   0.100000   0.000000   0.000000  
3755             14-14400         14-14480         280.660000 0.013000   0.000000   0.100000   0.000000   0.000000  
3756             14-13640         14-14400         297.920000 0.013000   0.000000   0.200000   0.000000   0.000000  
3776             14-12450         14-12400         120.000000 0.013000   0.000000   0.200000   0.000000   0.000000  
3827             14-12190         14-12450         254.810000 0.013000   0.000000   0.200000   0.000000   0.000000  
3891             14-11970         14-12190         285.000000 0.013000   0.000000   0.100000   0.000000   0.000000  
3950             14-11820         14-11970         231.300000 0.013000   0.000000   0.100000   0.000000   0.000000  
3996             14-11450         14-11820         277.740000 0.013000   0.000000   0.100000   0.000000   0.000000  
4045             14-10940         14-11300         237.310000 0.013000   0.000000   0.100000   0.000000   0.000000  
4090             14-10970         14-10940         200.850000 0.013000   0.000000   0.200000   0.000000   0.000000  
4131             14-10810         14-10970         156.500000 0.013000   0.000000   0.100000   0.000000   0.000000  
4135             14-10750         14-10810         35.230000  0.013000   0.000000   0.100000   0.000000   0.000000  
4179             14-10060         14-10430         233.300000 0.013000   0.000000   0.100000   0.000000   0.000000  
4182             14-10580         14-10750         208.900000 0.013000   0.000000   0.100000   0.000000   0.000000  
4183             14-10430         14-10580         99.720000  0.013000   0.000000   0.200000   0.000000   0.000000  
4202             14-09780         14-10060         301.580000 0.013000   0.000000   0.100000   0.000000   0.000000  
4248/new         14-09510         14-09780         300.000000 0.013000   0.000000   0.100000   0.000000   0.000000  
4304             14-09460         14-09250         216.260000 0.013000   0.000000   0.200000   0.000000   0.000000  
4320             14-09300         14-09460         164.380000 0.013000   0.000000   0.100000   0.000000   0.000000  
4328             14-08680         14-08850         167.520000 0.013000   0.000000   0.100000   0.000000   0.000000  
4335             14-09080         14-09300         161.320000 0.013000   0.000000   0.100000   0.000000   0.000000  
4336             14-08850         14-09080         244.970000 0.013000   0.000000   0.100000   0.000000   0.000000  
4339             14-09620         14-09540         132.940000 0.013000   0.000000   0.100000   0.000000   0.000000  
4345             14-08540         14-08680         149.190000 0.013000   0.000000   0.100000   0.000000   0.000000  
4352             14-09760         14-09620         157.090000 0.013000   0.000000   0.100000   0.000000   0.000000  
4372             14-09700         14-09760         150.110000 0.013000   0.000000   0.100000   0.000000   0.000000  
4927             14-09370         WTP1             433.350000 0.013000   0.650000   0.000000   0.000000   0.000000  
4931             14-19260         14-19390         300.000000 0.013000   0.000000   0.120000   0.000000   0.000000  
4984             14-18260         14-18380         257.210000 0.013000   0.000000   0.080000   0.000000   0.000000  
5105             14-13150         14-13830         358.000000 0.013000   0.000000   0.100000   0.000000   0.000000  
5158             14-10590         14-10860         374.280000 0.013000   0.000000   0.160000   0.000000   0.000000  
5237             14-14660         14-14770         281.840000 0.013000   0.000000   0.200000   0.000000   0.000000  
5297             14-11300         14-11450         199.540000 0.013000   0.000000   0.100000   0.000000   0.000000  
5328             14-09250         14-09510         324.670000 0.013000   0.000000   0.100000   0.000000   0.000000  
5330             14-09540         14-09460         134.180000 0.013000   0.000000   0.100000   0.000000   0.000000  
; inv. and length fixed accorging to the plan
5776             14-15390         14-15460         228.030000 0.013000   0.000000   0.130000   0.000000   0.000000  
; inv. and length fixed accorging to the plan
5777             14-15360         14-15390         71.000000  0.013000   0.000000   3.440000   0.000000   0.000000  
5780             14-15260         14-15360         325.000000 0.013000   0.000000   0.930000   0.000000   0.000000  
5785             14-15140         14-15260         317.650000 0.013000   0.000000   0.100000   0.000000   0.000000  
5967             14-09730         14-09370         312.650000 0.009000   0.650000   0.000000   0.000000   0.000000  
5971             14-14000         14-13020         500.000000 0.013000   0.000000   0.120000   0.000000   0.000000  
5973             14-16410         14-14000         1000.000000 0.013000   0.000000   0.120000   0.000000   0.000000  
5980             14-13020         14-12840         76.090000  0.013000   0.000000   0.000000   0.000000   0.000000  
; inv. and length fixed accorging to the plan
6139             14-15460         14-15470         87.000000  0.013000   0.000000   1.440000   0.000000   0.000000  
6168             14-19280         14-16900         737.100000 0.013000   0.000000   0.000000   0.000000   0.000000  
6169             14-11120         14-09730         900.000000 0.013000   0.000000   0.000000   0.000000   0.000000  
7128             14-19560         14-19530         32.413000  0.013000   0.000000   0.000000   0.000000   0.000000  
7135             14-17370         14-17580         388.110000 0.013000   0.000000   0.120000   0.000000   0.000000  
7475             14-15470         14-16360         364.114000 0.013000   0.000000   0.100000   0.000000   0.000000  
920              14-19530         14-19280         61.670000  0.013000   2.170000   0.100000   0.000000   0.000000  
934              14-16900         14-16410         179.900000 0.013000   3.616000   0.120000   0.000000   0.000000  
979              14-19390         14-19560         301.370000 0.013000   0.000000   0.120000   0.000000   0.000000  

[XSECTIONS]
;;Link           Shape        Geom1            Geom2      Geom3      Geom4      Barrels    Culvert   
;;-------------- ------------ ---------------- ---------- ---------- ---------- ---------- ----------
1018             CIRCULAR     3.500000         0.000000   0.000000   0.000000   1          0         
1022             CIRCULAR     3.500000         0.000000   0.000000   0.000000   1          0         
1062             CIRCULAR     0.833333         0.000000   0.000000   0.000000   1          0         
1104             CIRCULAR     0.833333         0.000000   0.000000   0.000000   1          0         
1207             CIRCULAR     0.833333         0.000000   0.000000   0.000000   1          0         
1270             CIRCULAR     0.833333         0.000000   0.000000   0.000000   1          0         
1291             CIRCULAR     0.833333         0.000000   0.000000   0.000000   1          0         
1305             CIRCULAR     0.833333         0.000000   0.000000   0.000000   1          0         
1406             CIRCULAR     0.833333         0.000000   0.000000   0.000000   1          0         
1498             CIRCULAR     0.833333         0.000000   0.000000   0.000000   1          0         
1582             CIRCULAR     0.833333         0.000000   0.000000   0.000000   1          0         
1658             CIRCULAR     0.833333         0.000000   0.000000   0.000000   1          0         
1701             CIRCULAR     0.833333         0.000000   0.000000   0.000000   1          0         
1748             CIRCULAR     0.833333         0.000000   0.000000   0.000000   1          0         
1764             CIRCULAR     0.833333         0.000000   0.000000   0.000000   1          0         
1862             CIRCULAR     0.833333         0.000000   0.000000   0.000000   1          0         
1941             CIRCULAR     1.000000         0.000000   0.000000   0.000000   1          0         
2174             CIRCULAR     0.833333         0.000000   0.000000   0.000000   1          0         
2246             CIRCULAR     0.833333         0.000000   0.000000   0.000000   1          0         
2326             CIRCULAR     0.833333         0.000000   0.000000   0.000000   1          0         
2445             CIRCULAR     1.000000         0.000000   0.000000   0.000000   1          0         
2500             CIRCULAR     1.000000         0.000000   0.000000   0.000000   1          0         
2574             CIRCULAR     1.000000         0.000000   0.000000   0.000000   1          0         
2662             CIRCULAR     0.833333         0.000000   0.000000   0.000000   1          0         
2694             CIRCULAR     0.833333         0.000000   0.000000   0.000000   1          0         
2759             CIRCULAR     0.666667         0.000000   0.000000   0.000000   1          0         
2895             CIRCULAR     0.666667         0.000000   0.000000   0.000000   1          0         
2987             CIRCULAR     0.666667         0.000000   0.000000   0.000000   1          0         
3048             CIRCULAR     0.666667         0.000000   0.000000   0.000000   1          0         
3108             CIRCULAR     0.666667         0.000000   0.000000   0.000000   1          0         
3178             CIRCULAR     0.666667         0.000000   0.000000   0.000000   1          0         
3212             CIRCULAR     0.666667         0.000000   0.000000   0.000000   1          0         
3285             CIRCULAR     0.666667         0.000000   0.000000   0.000000   1          0         
3320             CIRCULAR     0.666667         0.000000   0.000000   0.000000   1          0         
3355             CIRCULAR     0.666667         0.000000   0.000000   0.000000   1          0         
3420             CIRCULAR     0.666667         0.000000   0.000000   0.000000   1          0         
3452             CIRCULAR     0.666667         0.000000   0.000000   0.000000   1          0         
3468             CIRCULAR     0.666667         0.000000   0.000000   0.000000   1          0         
3478             CIRCULAR     0.666667         0.000000   0.000000   0.000000   1          0         
3595             CIRCULAR     0.666667         0.000000   0.000000   0.000000   1          0         
3673             CIRCULAR     0.666667         0.000000   0.000000   0.000000   1          0         
3727             CIRCULAR     0.666667         0.000000   0.000000   0.000000   1          0         
3737             CIRCULAR     0.666667         0.000000   0.000000   0.000000   1          0         
3742             CIRCULAR     0.666667         0.000000   0.000000   0.000000   1          0         
3755             CIRCULAR     0.666667         0.000000   0.000000   0.000000   1          0         
3756             CIRCULAR     0.666667         0.000000   0.000000   0.000000   1          0         
3776             CIRCULAR     0.666667         0.000000   0.000000   0.000000   1          0         
3827             CIRCULAR     0.666667         0.000000   0.000000   0.000000   1          0         
3891             CIRCULAR     0.666667         0.000000   0.000000   0.000000   1          0         
3950             CIRCULAR     0.666667         0.000000   0.000000   0.000000   1          0         
3996             CIRCULAR     0.666667         0.000000   0.000000   0.000000   1          0         
4045             CIRCULAR     0.666667         0.000000   0.000000   0.000000   1          0         
4090             CIRCULAR     0.666667         0.000000   0.000000   0.000000   1          0         
4131             CIRCULAR     0.666667         0.000000   0.000000   0.000000   1          0         
4135             CIRCULAR     0.666667         0.000000   0.000000   0.000000   1          0         
4179             CIRCULAR     0.666667         0.000000   0.000000   0.000000   1          0         
4182             CIRCULAR     0.666667         0.000000   0.000000   0.000000   1          0         
4183             CIRCULAR     0.666667         0.000000   0.000000   0.000000   1          0         
4202             CIRCULAR     0.666667         0.000000   0.000000   0.000000   1          0         
4248/new         CIRCULAR     0.666667         0.000000   0.000000   0.000000   1          0         
4304             CIRCULAR     0.666667         0.000000   0.000000   0.000000   1          0         
4320             CIRCULAR     0.666667         0.000000   0.000000   0.000000   1          0         
4328             CIRCULAR     0.666667         0.000000   0.000000   0.000000   1          0         
4335             CIRCULAR     0.666667         0.000000   0.000000   0.000000   1          0         
4336             CIRCULAR     0.666667         0.000000   0.000000   0.000000   1          0         
4339             CIRCULAR     0.666667         0.000000   0.000000   0.000000   1          0         
4345             CIRCULAR     0.666667         0.000000   0.000000   0.000000   1          0         
4352             CIRCULAR     0.666667         0.000000   0.000000   0.000000   1          0         
4372             CIRCULAR     0.666667         0.000000   0.000000   0.000000   1          0         
4927             CIRCULAR     3.500000         0.000000   0.000000   0.000000   1          0         
4931             CIRCULAR     0.833333         0.000000   0.000000   0.000000   1          0         
4984             CIRCULAR     0.833333         0.000000   0.000000   0.000000   1          0         
5105             CIRCULAR     1.000000         0.000000   0.000000   0.000000   1          0         
5158             CIRCULAR     0.666667         0.000000   0.000000   0.000000   1          0         
5237             CIRCULAR     0.666667         0.000000   0.000000   0.000000   1          0         
5297             CIRCULAR     0.666667         0.000000   0.000000   0.000000   1          0         
5328             CIRCULAR     0.666667         0.000000   0.000000   0.000000   1          0         
5330             CIRCULAR     0.666667         0.000000   0.000000   0.000000   1          0         
5776             CIRCULAR     1.000000         0.000000   0.000000   0.000000   1          0         
5777             CIRCULAR     1.000000         0.000000   0.000000   0.000000   1          0         
5780             CIRCULAR     1.000000         0.000000   0.000000   0.000000   1          0         
5785             CIRCULAR     1.000000         0.000000   0.000000   0.000000   1          0         
5967             CIRCULAR     3.500000         0.000000   0.000000   0.000000   1          0         
5971             CIRCULAR     3.500000         0.000000   0.000000   0.000000   1          0         
5973             CIRCULAR     3.500000         0.000000   0.000000   0.000000   1          0         
5980             CIRCULAR     3.500000         0.000000   0.000000   0.000000   1          0         
6139             CIRCULAR     1.000000         0.000000   0.000000   0.000000   1          0         
6168             CIRCULAR     3.500000         0.000000   0.000000   0.000000   1          0         
6169             CIRCULAR     3.500000         0.000000   0.000000   0.000000   1          0         
7128             CIRCULAR     0.833333         0.000000   0.000000   0.000000   1          0         