[TITLE]
;;Project Title/Notes
 

[OPTIONS]
;;Option             Value
FLOW_UNITS           GPM
INFILTRATION         GREEN_AMPT
FLOW_ROUTING         DYNWAVE
LINK_OFFSETS         DEPTH
MIN_SLOPE            0
ALLOW_PONDING        NO
SKIP_STEADY_STATE    NO

START_DATE           04/01/2014
START_TIME           00:00:00
REPORT_START_DATE    04/01/2014
REPORT_START_TIME    00:00:00
END_DATE             04/02/2014
END_TIME             00:00:00
SWEEP_START          01/01
SWEEP_END            12/31
DRY_DAYS             0
REPORT_STEP          00:15:00
WET_STEP             00:15:00
DRY_STEP             00:15:00
ROUTING_STEP         0:01:00 

INERTIAL_DAMPING     PARTIAL
NORMAL_FLOW_LIMITED  FROUDE
FORCE_MAIN_EQUATION  H-W
VARIABLE_STEP        0.75
LENGTHENING_STEP     5
MIN_SURFAREA         12.557
MAX_TRIALS           8
HEAD_TOLERANCE       0.005
SYS_FLOW_TOL         5
LAT_FLOW_TOL         5
MINIMUM_STEP         0
THREADS              1

[EVAPORATION]
;;Data Source    Parameters
;;-------------- ----------------
CONSTANT         0.0
DRY_ONLY         NO

[RAINGAGES]
;;Name           Format    Interval SCF      Source    
;;-------------- --------- ------ ------ ----------
Design~Storm~H   INTENSITY 0.25000  1.0      TIMESERIES RN#49           

[SUBCATCHMENTS]
;;Name           Rain Gage        Outlet           Area     %Imperv  Width    %Slope   CurbLen  SnowPack        
;;-------------- ---------------- ---------------- -------- -------- -------- -------- -------- ----------------
S106-047#1       Design~Storm~H   S106-047         1.892    7.6      214      4.5      0                        
S106-047#3       Design~Storm~H   S106-047         1.892    6        0.6      4.5      0                        
S106-022#3       Design~Storm~H   S106-022         85.156   6        0.6      5        0                        
S106-006#1       Design~Storm~H   S106-006         48.589   2.1      1166     4.6      0                        
S106-006#3       Design~Storm~H   S106-006         48.589   6        0.6      4.6      0                        
S106-008#3       Design~Storm~H   S106-008         274.232  6        0.5      3        0                        
S106-067#1       Design~Storm~H   S106-067         13.093   4.9      540      4.4      0                        
S106-067#3       Design~Storm~H   S106-067         13.093   6        0.6      4.4      0                        
S106-053#1       Design~Storm~H   S106-053         21.271   4.9      490      4.3      0                        
S106-053#3       Design~Storm~H   S106-053         21.271   6        0.6      4.3      0                        
S106-039#1       Design~Storm~H   S106-039         56.551   0.8      1318     3.8      0                        
S106-039#3       Design~Storm~H   S106-039         56.551   6        0.6      3.8      0                        
S106-042#1       Design~Storm~H   S106-042         2.235    5.8      222      4.5      0                        
S106-042#3       Design~Storm~H   S106-042         2.235    6        0.6      4.5      0                        
S105-332#1       Design~Storm~H   S105-332         13.31    5.7      555      5.8      0                        
S105-332#3       Design~Storm~H   S105-332         13.31    8        0.6      5.8      0                        
S105-054#1       Design~Storm~H   S105-054         0.798    100      94.65    0.6      0                        
S105-054#2       Design~Storm~H   S105-054         0.399    100      94.65    0.6      0                        
S105-054#3       Design~Storm~H   S105-054         0.346    0        94.65    0.6      0                        
S123-071#1       Design~Storm~H   S123-071         7.363    7        347      4        0                        
S123-071#3       Design~Storm~H   S123-071         7.363    8        0.6      4        0                        
S128-574#1       Design~Storm~H   S128-574         15.265   8        602      3.9      0                        
S128-574#3       Design~Storm~H   S128-574         15.265   8        0.6      3.9      0                        
S123-036#1       Design~Storm~H   S123-036         19.071   8.6      658      4.1      0                        
S123-036#3       Design~Storm~H   S123-036         19.071   8        0.6      4.1      0                        
S123-039#1       Design~Storm~H   S123-039         15.069   9.3      572      3.5      0                        
S123-039#3       Design~Storm~H   S123-039         15.069   8        0.6      3.5      0                        
S123-087#1       Design~Storm~H   S123-087         26.117   9.4      710      3.3      0                        
S123-087#3       Design~Storm~H   S123-087         26.117   8        0.6      3.3      0                        
S123-393#1       Design~Storm~H   S123-393         0.775    100      57.45    0.5      0                        
S123-393#2       Design~Storm~H   S123-393         0.008    100      3.83     0        0                        
S123-393#3       Design~Storm~H   S123-393         0.636    0        383      3.1      0                        
S123-435#1       Design~Storm~H   S123-435         0.365    100      41.1     0.5      0                        
S123-435#2       Design~Storm~H   S123-435         0.004    100      2.74     0        0                        
S123-435#3       Design~Storm~H   S123-435         0.34     0        274      3.1      0                        
S123-395#1       Design~Storm~H   S123-395         0.391    100      51.15    0.6      0                        
S123-395#2       Design~Storm~H   S123-395         0.004    100      3.41     0        0                        
S123-395#3       Design~Storm~H   S123-395         0.369    0        341      3.7      0                        
S123-227#1       Design~Storm~H   S123-227         0.977    100      94.8     0.4      0                        
S123-227#2       Design~Storm~H   S123-227         0.01     100      6.32     0        0                        
S123-227#3       Design~Storm~H   S123-227         0.721    0        632      2.9      0                        
S123-222#1       Design~Storm~H   S123-222         0.056    100      15.3     0.5      0                        
S123-222#2       Design~Storm~H   S123-222         0.001    100      1.02     0        0                        
S123-222#3       Design~Storm~H   S123-222         0.021    0        102      3.1      0                        
S123-840#1       Design~Storm~H   S123-840         0.272    100      54       0.4      0                        
S123-840#2       Design~Storm~H   S123-840         0.003    100      3.6      0        0                        
S123-840#3       Design~Storm~H   S123-840         0.237    0        360      3        0                        
S122-410#1       Design~Storm~H   S122-410         0.312    100      76.25    0.9      0                        
S122-410#2       Design~Storm~H   S122-410         0.156    100      76.25    0.9      0                        
S122-410#3       Design~Storm~H   S122-410         0.161    0        76.25    0.9      0                        
S122-250#1       Design~Storm~H   S122-250         0.698    100      66.45    0.5      0                        
S122-250#2       Design~Storm~H   S122-250         0.007    100      4.43     0        0                        
S122-250#3       Design~Storm~H   S122-250         0.583    0        443      3.6      0                        
S122-238#1       Design~Storm~H   S122-238         0.805    100      110.5    0.9      0                        
S122-238#2       Design~Storm~H   S122-238         0.403    100      110.5    0.9      0                        
S122-238#3       Design~Storm~H   S122-238         0.321    0        110.5    0.9      0                        
S122-654#1       Design~Storm~H   S122-654         2.048    100      98.4     0.5      0                        
S122-654#2       Design~Storm~H   S122-654         0.02     100      6.56     0        0                        
S122-654#3       Design~Storm~H   S122-654         0.962    0        656      3.5      0                        
S122-024#1       Design~Storm~H   S122-024         19.133   24.6     655      3.2      0                        
S122-024#3       Design~Storm~H   S122-024         19.133   10       0.7      3.2      0                        
S122-664#1       Design~Storm~H   S122-664         13.693   14.7     744      5.5      0                        
S122-664#3       Design~Storm~H   S122-664         13.693   10       0.7      5.5      0                        
S122-667#1       Design~Storm~H   S122-667         12.9     13.2     713      5.9      0                        
S122-667#3       Design~Storm~H   S122-667         12.9     5        0.7      5.9      0                        
S122-055#1       Design~Storm~H   S122-055         12.555   18.6     430      3.8      0                        
S122-055#3       Design~Storm~H   S122-055         12.555   10       0.7      3.8      0                        
S122-066#1       Design~Storm~H   S122-066         13.17    18.6     426      5        0                        
S122-066#3       Design~Storm~H   S122-066         13.17    5        0.7      5        0                        
S122-376#1       Design~Storm~H   S122-376         0.184    100      78.8     1.9      0                        
S122-376#2       Design~Storm~H   S122-376         0.092    100      78.8     1.9      0                        
S122-376#3       Design~Storm~H   S122-376         0.074    0        78.8     1.9      0                        
S122-404#1       Design~Storm~H   S122-404         1.638    100      85.65    0.7      0                        
S122-404#2       Design~Storm~H   S122-404         0.819    100      85.65    0.7      0                        
S122-404#3       Design~Storm~H   S122-404         0.637    0        85.65    0.7      0                        
S122-397#1       Design~Storm~H   S122-397         0.24     100      42.9     0.7      0                        
S122-397#2       Design~Storm~H   S122-397         0.12     100      42.9     0.7      0                        
S122-397#3       Design~Storm~H   S122-397         0.114    0        42.9     0.7      0                        
S122-389#1       Design~Storm~H   S122-389         0.123    100      44.4     0.8      0                        
S122-389#2       Design~Storm~H   S122-389         0.062    100      44.4     0.8      0                        
S122-389#3       Design~Storm~H   S122-389         0.062    0        44.4     0.8      0                        
S122-318#1       Design~Storm~H   S122-318         0.36     100      49.2     0.6      0                        
S122-318#2       Design~Storm~H   S122-318         0.18     100      49.2     0.6      0                        
S122-318#3       Design~Storm~H   S122-318         0.197    0        49.2     0.6      0                        
S122-322#1       Design~Storm~H   S122-322         0.368    100      48       0.7      0                        
S122-322#2       Design~Storm~H   S122-322         0.184    100      48       0.7      0                        
S122-322#3       Design~Storm~H   S122-322         0.185    0        48       0.7      0                        
S122-332#1       Design~Storm~H   S122-332         0.661    100      117.3    0.8      0                        
S122-332#2       Design~Storm~H   S122-332         0.331    100      117.3    0.8      0                        
S122-332#3       Design~Storm~H   S122-332         0.277    0        117.3    0.8      0                        
S122-335#1       Design~Storm~H   S122-335         1.157    100      43.5     0.5      0                        
S122-335#2       Design~Storm~H   S122-335         0.579    100      43.5     0.5      0                        
S122-335#3       Design~Storm~H   S122-335         0.387    0        43.5     0.5      0                        
S122-348#3       Design~Storm~H   S122-348         1.761    6        0.6      5        0                        
S122-172#1       Design~Storm~H   S122-172         0.777    100      36.765   0.4      0                        
S122-172#2       Design~Storm~H   S122-172         0.008    100      2.451    0        0                        
S122-172#3       Design~Storm~H   S122-172         0.205    0        245.1    2.8      0                        
S121-054#1       Design~Storm~H   S121-054         41.382   1.2      671      2.7      0                        
S121-054#3       Design~Storm~H   S121-054         41.382   6        0.6      2.7      0                        
S121-058#1       Design~Storm~H   S121-058         38.384   2.8      893      3.2      0                        
S121-058#3       Design~Storm~H   S121-058         38.384   6        0.6      3.2      0                        
S129-019#3       Design~Storm~H   S129-019         81.81    5        0.5      5.9      0                        
S129-055#3       Design~Storm~H   S129-055         38.795   10       0.5      6.1      0                        
S129-053#3       Design~Storm~H   S129-053         10.058   8        0.5      7.5      0                        
S130-015#3       Design~Storm~H   S130-015         61.356   5        0.5      5.8      0                        
S129-016#3       Design~Storm~H   S129-016         75.235   5        0.6      6.9      0                        
S129-006#3       Design~Storm~H   S129-006         15.79    6        0.5      5.7      0                        
S129-003#3       Design~Storm~H   S129-003         55.362   6        0.5      4.7      0                        
S128-495#1       Design~Storm~H   S128-495         39.316   15.2     1037     3.3      0                        
S128-495#3       Design~Storm~H   S128-495         39.316   8        0.6      3.3      0                        
S128-498#1       Design~Storm~H   S128-498         14.683   26.1     343      3.6      0                        
S128-498#3       Design~Storm~H   S128-498         14.683   6        0.6      3.6      0                        
S128-486#1       Design~Storm~H   S128-486         13.594   25.4     218      2.8      0                        
S128-486#3       Design~Storm~H   S128-486         13.594   8        0.6      2.8      0                        
S128-393#1       Design~Storm~H   S128-393         19.136   10.5     555      2.8      0                        
S128-393#3       Design~Storm~H   S128-393         19.136   8        0.6      2.8      0                        
S128-291#1       Design~Storm~H   S128-291         12.63    10.2     632      3.1      0                        
S128-291#3       Design~Storm~H   S128-291         12.63    9        0.8      3.1      0                        
S128-318#1       Design~Storm~H   S128-318         4.314    30.6     214      2        0                        
S128-318#3       Design~Storm~H   S128-318         4.314    8        0.6      2        0                        
S128-374#1       Design~Storm~H   S128-374         15.767   20.7     534      3.3      0                        
S128-374#3       Design~Storm~H   S128-374         15.767   8        0.6      3.3      0                        
S128-193#1       Design~Storm~H   S128-193         6.854    10.8     357      3.3      0                        
S128-193#3       Design~Storm~H   S128-193         6.854    9        0.8      3.3      0                        
S128-200#1       Design~Storm~H   S128-200         5.435    10.7     317      3.7      0                        
S128-200#3       Design~Storm~H   S128-200         5.435    9        0.8      3.7      0                        
S128-170#1       Design~Storm~H   S128-170         10.996   10.1     276      3.5      0                        
S128-170#3       Design~Storm~H   S128-170         10.996   9        0.6      3.5      0                        
S128-037#1       Design~Storm~H   S128-037         38.97    10.4     580      4.2      0                        
S128-037#3       Design~Storm~H   S128-037         38.97    8        0.6      4.2      0                        
S128-008#1       Design~Storm~H   S128-008         16.08    7.4      622      5.2      0                        
S128-008#3       Design~Storm~H   S128-008         16.08    9        0.6      5.2      0                        
S128-582#1       Design~Storm~H   S128-582         8.693    11.7     282      2.8      0                        
S128-582#3       Design~Storm~H   S128-582         8.693    8        0.6      2.8      0                        
S128-431#1       Design~Storm~H   S128-431         18.991   20.2     532      4.6      0                        
S128-431#3       Design~Storm~H   S128-431         18.991   8        0.6      4.6      0                        
S128-367#1       Design~Storm~H   S128-367         24.602   14.6     799      5.6      0                        
S128-367#3       Design~Storm~H   S128-367         24.602   8        0.6      5.6      0                        
S127-396#1       Design~Storm~H   S127-396         9.408    16.3     354      3.1      0                        
S127-396#3       Design~Storm~H   S127-396         9.408    9        0.8      3.1      0                        
S127-451#1       Design~Storm~H   S127-451         2.108    13       178      2.9      0                        
S127-451#3       Design~Storm~H   S127-451         2.108    6        0.6      2.9      0                        
S127-448#1       Design~Storm~H   S127-448         5.315    12.2     325      3.2      0                        
S127-448#3       Design~Storm~H   S127-448         5.315    5        0.5      3.2      0                        
S127-304#1       Design~Storm~H   S127-304         23.555   5.7      854      2.5      0                        
S127-304#3       Design~Storm~H   S127-304         23.555   6        0.6      2.5      0                        
S126-375#1       Design~Storm~H   S126-375         2.763    45.5     199      1.4      0                        
S126-375#3       Design~Storm~H   S126-375         2.763    6        0.5      1.4      0                        
S127-189#1       Design~Storm~H   S127-189         20.878   7.3      693      2.4      0                        
S127-189#3       Design~Storm~H   S127-189         20.878   6        0.6      2.4      0                        
S127-149#1       Design~Storm~H   S127-149         3.593    6.7      414      1.8      0                        
S127-149#3       Design~Storm~H   S127-149         3.593    5        0.5      1.8      0                        
S127-231#1       Design~Storm~H   S127-231         18.511   7.4      892      2.6      0                        
S127-231#3       Design~Storm~H   S127-231         18.511   6        0.6      2.6      0                        
S127-236#1       Design~Storm~H   S127-236         26.757   8.1      647      2.5      0                        
S127-236#3       Design~Storm~H   S127-236         26.757   6        0.6      2.5      0                        
S127-241#1       Design~Storm~H   S127-241         17.993   8.2      707      2.9      0                        
S127-241#3       Design~Storm~H   S127-241         17.993   6        0.6      2.9      0                        
S127-158#1       Design~Storm~H   S127-158         5.021    15.5     389      2.2      0                        
S127-158#3       Design~Storm~H   S127-158         5.021    7        0.5      2.2      0                        
S127-086#1       Design~Storm~H   S127-086         16.307   20.9     637      2.8      0                        
S127-086#3       Design~Storm~H   S127-086         16.307   7        0.5      2.8      0                        
S127-245#1       Design~Storm~H   S127-245         13.229   7.9      594      2.6      0                        
S127-245#3       Design~Storm~H   S127-245         13.229   6        0.6      2.6      0                        
S127-077#1       Design~Storm~H   S127-077         33.508   20       910      3        0                        
S127-077#3       Design~Storm~H   S127-077         33.508   7        0.5      3        0                        
S127-032#1       Design~Storm~H   S127-032         13.799   15       562      1.9      0                        
S127-032#3       Design~Storm~H   S127-032         13.799   6        0.5      1.9      0                        
S127-072#1       Design~Storm~H   S127-072         5.338    12.3     364      3.8      0                        
S127-072#3       Design~Storm~H   S127-072         5.338    7        0.5      3.8      0                        
S127-061#1       Design~Storm~H   S127-061         2.772    10.2     328      3.8      0                        
S127-061#3       Design~Storm~H   S127-061         2.772    7        0.5      3.8      0                        
S127-256#1       Design~Storm~H   S127-256         34.798   6.7      659      4.2      0                        
S127-256#3       Design~Storm~H   S127-256         34.798   6        0.6      4.2      0                        
S127-053#1       Design~Storm~H   S127-053         7.78     10.1     198      3.6      0                        
S127-053#3       Design~Storm~H   S127-053         7.78     7        0.7      3.6      0                        
S126-365#1       Design~Storm~H   S126-365         5.805    12.7     379      1.8      0                        
S126-365#3       Design~Storm~H   S126-365         5.805    7        0.7      1.8      0                        
S148-060#3       Design~Storm~H   S148-060         44.236   5        0.5      5.1      0                        
S148-102#3       Design~Storm~H   S148-102         44.562   6        0.6      4.9      0                        
S148-555#3       Design~Storm~H   S148-555         37.493   5        0.5      4.5      0                        
S148-151#3       Design~Storm~H   S148-151         35.314   6        0.6      4.3      0                        
S148-028#1       Design~Storm~H   S148-028         1.178    6.6      366      4.3      0                        
S148-028#3       Design~Storm~H   S148-028         1.178    5        0.6      4.3      0                        
S148-104#3       Design~Storm~H   S148-104         50.362   6        0.6      4.2      0                        
S148-105#3       Design~Storm~H   S148-105         11.647   5        0.6      6.5      0                        
S148-568#3       Design~Storm~H   S148-568         16.846   5        0.6      6.3      0                        
S148-109#3       Design~Storm~H   S148-109         38.943   6        0.6      4.5      0                        
S148-550#3       Design~Storm~H   S148-550         67.7     5        0.5      5.2      0                        
S147-016#3       Design~Storm~H   S147-016         15.567   5        0.6      5.1      0                        
S147-250#3       Design~Storm~H   S147-250         94.064   5        0.5      5.2      0                        
S147-170#1       Design~Storm~H   S147-170         11.547   7.9      354      4.3      0                        
S147-170#3       Design~Storm~H   S147-170         11.547   6        0.6      4.3      0                        
S147-150#1       Design~Storm~H   S147-150         19       7        680      5.4      0                        
S147-150#3       Design~Storm~H   S147-150         19       6        0.6      5.4      0                        
S147-023#3       Design~Storm~H   S147-023         30.957   5        0.5      4.9      0                        
S146-027#3       Design~Storm~H   S146-027         211.389  6        0.5      4.8      0                        
S098-429#1       Design~Storm~H   S098-429         17.984   8.5      822      6        0                        
S098-429#3       Design~Storm~H   S098-429         17.984   8        0.6      6        0                        
S098-260#1       Design~Storm~H   S098-260         15.718   8.5      905      5.9      0                        
S098-260#3       Design~Storm~H   S098-260         15.718   8        0.6      5.9      0                        
S098-113#1       Design~Storm~H   S098-113         13.981   6.9      441      5.6      0                        
S098-113#3       Design~Storm~H   S098-113         13.981   8        0.6      5.6      0                        
S098-081#1       Design~Storm~H   S098-081         9.439    10.5     545      4.7      0                        
S098-081#3       Design~Storm~H   S098-081         9.439    8        0.5      4.7      0                        
S097-020#1       Design~Storm~H   S097-020         12.197   0.5      433      7.8      0                        
S097-020#3       Design~Storm~H   S097-020         12.197   8        0.6      7.8      0                        
S097-016#1       Design~Storm~H   S097-016         35.978   5.2      743      5.6      0                        
S097-016#3       Design~Storm~H   S097-016         35.978   8        0.6      5.6      0                        
S097-015#1       Design~Storm~H   S097-015         18.166   7.9      610      5.9      0                        
S097-015#3       Design~Storm~H   S097-015         18.166   8        0.6      5.9      0                        
S097-104#1       Design~Storm~H   S097-104         11.982   9.3      453      5.3      0                        
S097-104#3       Design~Storm~H   S097-104         11.982   8        0.6      5.3      0                        
S097-101#1       Design~Storm~H   S097-101         13.654   10.7     635      5.7      0                        
S097-101#3       Design~Storm~H   S097-101         13.654   8        0.6      5.7      0                        
S122-299#1       Design~Storm~H   S122-299         0.824    6.5      42.6     0.5      0                        
S122-299#2       Design~Storm~H   S122-299         0.008    0        2.84     0        0                        
S122-299#3       Design~Storm~H   S122-299         0.607    6        284      3.3      0                        
S147-003#1       Design~Storm~H   S147-003         32.133   12.9     882      4.8      0                        
S147-003#3       Design~Storm~H   S147-003         32.133   9        0.6      4.8      0                        
S147-010#1       Design~Storm~H   S147-010         19.035   5.6      1025     5.8      0                        
S147-010#3       Design~Storm~H   S147-010         19.035   9        0.8      5.8      0                        
S147-037#3       Design~Storm~H   S147-037         161.776  6        0.5      5.3      0                        
S098-413#1       Design~Storm~H   S098-413         26.743   6.8      752      5.1      0                        
S098-413#3       Design~Storm~H   S098-413         26.743   8        0.6      5.1      0                        
S097-004#1       Design~Storm~H   S097-004         34.569   2        1172     6.2      0                        
S097-004#3       Design~Storm~H   S097-004         34.569   8        0.6      6.2      0                        
S106-107#1       Design~Storm~H   S106-107         8.567    4.7      397      6.9      0                        
S106-107#3       Design~Storm~H   S106-107         8.567    8        0.6      6.9      0                        
S106-032Ta#1     Design~Storm~H   S106-032Ta       47.957   2.4      1246     5.7      0                        
S106-032Ta#3     Design~Storm~H   S106-032Ta       47.957   6        0.6      5.7      0                        
S106-029#3       Design~Storm~H   S106-029         85.264   5        0.5      5.1      0                        
S106-036#1       Design~Storm~H   S106-036         19.462   1.8      561      4.5      0                        
S106-036#3       Design~Storm~H   S106-036         19.462   6        0.6      4.5      0                        
S106-090#1       Design~Storm~H   S106-090         21.891   5.3      655      4.4      0                        
S106-090#3       Design~Storm~H   S106-090         21.891   8        0.6      4.4      0                        
S105-472#1       Design~Storm~H   S105-472         11.273   4.3      445      5.9      0                        
S105-472#3       Design~Storm~H   S105-472         11.273   8        0.6      5.9      0                        
S105-330#1       Design~Storm~H   S105-330         9.53     7.2      342      5.1      0                        
S105-330#3       Design~Storm~H   S105-330         9.53     8        0.6      5.1      0                        
S105-199#1       Design~Storm~H   S105-199         10.859   6.5      487      4        0                        
S105-199#3       Design~Storm~H   S105-199         10.859   6        0.6      4        0                        
S105-097#1       Design~Storm~H   S105-097         0.822    100      69.3     0.3      0                        
S105-097#2       Design~Storm~H   S105-097         0.411    100      69.3     0.3      0                        
S105-097#3       Design~Storm~H   S105-097         0.35     0        69.3     0.3      0                        
S105-045#1       Design~Storm~H   S105-045         1.324    100      76.2     0.4      0                        
S105-045#2       Design~Storm~H   S105-045         0.662    100      76.2     0.4      0                        
S105-045#3       Design~Storm~H   S105-045         0.389    0        76.2     0.4      0                        
S123-417#1       Design~Storm~H   S123-417         0.458    100      88.35    0.4      0                        
S123-417#2       Design~Storm~H   S123-417         0.005    100      5.89     0        0                        
S123-417#3       Design~Storm~H   S123-417         0.533    0        589      2.9      0                        
S123-402#1       Design~Storm~H   S123-402         0.831    100      105.6    0.4      0                        