[TITLE]
;;Project Title/Notes

[OPTIONS]
;;Option             Value
FLOW_UNITS           LPS
INFILTRATION         HORTON
FLOW_ROUTING         DYNWAVE
LINK_OFFSETS         DEPTH
MIN_SLOPE            0
ALLOW_PONDING        YES
SKIP_STEADY_STATE    NO

IGNORE_SNOWMELT      YES
IGNORE_GROUNDWATER   YES
IGNORE_QUALITY       YES
START_DATE           01/01/2222
START_TIME           00:00:00
REPORT_START_DATE    01/01/2222
REPORT_START_TIME    00:00:00
END_DATE             01/02/2222
END_TIME             00:00:00
SWEEP_START          01/01
SWEEP_END            12/31
DRY_DAYS             5.000000
REPORT_STEP          00:05:00
WET_STEP             00:01:00
DRY_STEP             00:05:00
ROUTING_STEP         0:00:20 

INERTIAL_DAMPING     PARTIAL
NORMAL_FLOW_LIMITED  BOTH
FORCE_MAIN_EQUATION  H-W
VARIABLE_STEP        0.75
LENGTHENING_STEP     0
MIN_SURFAREA         0
MAX_TRIALS           4
HEAD_TOLERANCE       0.005000
SYS_FLOW_TOL         5
LAT_FLOW_TOL         5
MINIMUM_STEP         0
THREADS              4

[EVAPORATION]
;;Data Source    Parameters
;;-------------- ----------------
CONSTANT         0.0
DRY_ONLY         NO

[RAINGAGES]
;;Name           Format    Interval SCF      Source    
;;-------------- --------- ------ ------ ----------
KWANTLAN_DESIGN_STM INTENSITY 0.333333 1.000000 TIMESERIES 5YR_24HR        
MUNICIPAL_DESIGN_STM INTENSITY 0.333333 1.000000 TIMESERIES MUN_5YR_24HR    
WHITEROCK_DESIGN_STM INTENSITY 0.333333 1.000000 TIMESERIES WR_5YR_24HR     

[JUNCTIONS]
;;Name           Elevation  MaxDepth   InitDepth  SurDepth   Aponded   
;;-------------- ---------- ---------- ---------- ---------- ----------
;Regular
1000101664       41.520000  3.580000   0.000000   0.000000   0.000000  
;Regular
1000101665       33.240000  1.820000   0.000000   0.000000   0.000000  
;Regular
1000101666       33.360000  2.180000   0.000000   0.000000   0.000000  
;Regular
1000101667       35.540000  2.790000   0.000000   0.000000   0.000000  
;Regular
1000101668       35.760000  2.740000   0.000000   0.000000   0.000000  
;Regular
1000101669       36.020000  3.120000   0.000000   0.000000   0.000000  
;Outside Drop
1000101672       34.920000  2.640000   0.000000   0.000000   0.000000  
;Regular
1000101673       45.840000  4.350000   0.000000   0.000000   0.000000  
;Regular
1000101674       45.510000  2.750000   0.000000   0.000000   0.000000  
;Regular
1000101675       40.210000  2.860000   0.000000   0.000000   0.000000  
;Regular
1000101676       37.450000  2.980000   0.000000   0.000000   0.000000  
;Regular
1000101677       87.080000  1.600000   0.000000   0.000000   0.000000  
;Regular
1000101678       86.630000  1.630000   0.000000   0.000000   0.000000  
;Regular
1000101679       84.240000  2.230000   0.000000   0.000000   0.000000  
;Regular
1000101680       85.650000  2.590000   0.000000   0.000000   0.000000  
;Regular
1000101681       87.030000  1.750000   0.000000   0.000000   0.000000  
;Regular
1000101682       84.910000  2.350000   0.000000   0.000000   0.000000  
;Regular
1000101684       78.200000  2.730000   0.000000   0.000000   0.000000  
;Regular
1000101685       76.700000  2.740000   0.000000   0.000000   0.000000  
;Regular
1000101686       75.020000  1.351000   0.000000   0.000000   0.000000  
;Regular
1000101687       72.160000  2.650000   0.000000   0.000000   0.000000  
;Regular
1000101688       71.120000  2.400000   0.000000   0.000000   0.000000  
;Regular
1000101689       66.460000  2.890000   0.000000   0.000000   0.000000  
;Regular
1000101690       62.570000  2.380000   0.000000   0.000000   0.000000  
;Regular
1000101691       59.730000  1.340000   0.000000   0.000000   0.000000  
;Outside Drop
1000101692       33.770000  2.530000   0.000000   0.000000   0.000000  
;Regular
1000101693       35.780000  2.510000   0.000000   0.000000   0.000000  
;Regular
1000101694       37.720000  2.450000   0.000000   0.000000   0.000000  
;Regular
1000101698       81.160000  1.850000   0.000000   0.000000   0.000000  
;Regular
1000101699       77.630000  1.310000   0.000000   0.000000   0.000000  
;Regular
1000101700       72.780000  2.740000   0.000000   0.000000   0.000000  
;Regular
1000101701       73.250000  2.420000   0.000000   0.000000   0.000000  
;Regular
1000101702       75.230000  3.390000   0.000000   0.000000   0.000000  
;Regular
1000101703       78.900000  3.540000   0.000000   0.000000   0.000000  
;Regular
1000101704       79.370000  3.059000   0.000000   0.000000   0.000000  
;Outside Drop
1000101705       79.850000  3.136000   0.000000   0.000000   0.000000  
;Regular
1000101706       83.960000  4.050000   0.000000   0.000000   0.000000  
;Regular
1000101707       83.380000  2.520000   0.000000   0.000000   0.000000  
;Regular
1000101708       81.030000  2.880000   0.000000   0.000000   0.000000  
;Regular
1000101709       80.420000  2.680000   0.000000   0.000000   0.000000  
;Regular
1000101711       74.440000  4.230000   0.000000   0.000000   0.000000  
;Regular
1000101712       70.210000  2.020000   0.000000   0.000000   0.000000  
;Regular
1000101713       69.600000  1.890000   0.000000   0.000000   0.000000  
;Regular
1000101714       69.170000  3.470000   0.000000   0.000000   0.000000  
;Regular
1000101721       74.810000  1.770000   0.000000   0.000000   0.000000  
;Regular
1000101722       78.720000  2.260000   0.000000   0.000000   0.000000  
;Regular
1000101727       81.440000  3.930000   0.000000   0.000000   0.000000  
;Regular
1000101728       82.880000  2.750000   0.000000   0.000000   0.000000  
;Regular
1000101729       78.690000  3.910000   0.000000   0.000000   0.000000  
;Outside Drop
1000101730       78.300000  3.910000   0.000000   0.000000   0.000000  
;Regular
1000101731       81.420000  2.860000   0.000000   0.000000   0.000000  
;Regular
1000101732       82.260000  3.650000   0.000000   0.000000   0.000000  
;Regular
1000101733       74.000000  3.093000   0.000000   0.000000   0.000000  
;Regular
1000101734       76.440000  3.270000   0.000000   0.000000   0.000000  
;Regular
1000101735       77.160000  4.150000   0.000000   0.000000   0.000000  
;Regular
1000101736       77.880000  3.970000   0.000000   0.000000   0.000000  
;Force Main
1000101737       21.820000  1.748000   0.000000   1000.000000 0.000000  
;Regular
1000101761       35.830000  2.850000   0.000000   0.000000   0.000000  
;Regular
1000101762       37.210000  4.000000   0.000000   0.000000   0.000000  
;Regular
1000101763       39.720000  3.870000   0.000000   0.000000   0.000000  
;Regular
1000101764       44.320000  3.550000   0.000000   0.000000   0.000000  
;Regular
1000101765       47.880000  3.260000   0.000000   0.000000   0.000000  
;Regular
1000101766       38.920000  3.330000   0.000000   0.000000   0.000000  
;Regular
1000101767       39.950000  1.810000   0.000000   0.000000   0.000000  
;Regular
1000101768       44.910000  3.600000   0.000000   0.000000   0.000000  
;Regular
1000101771       76.520000  1.400000   0.000000   0.000000   0.000000  
;Outside Drop
1000101772       88.460000  3.200000   0.000000   0.000000   0.000000  
;Regular
1000101773       90.020000  3.120000   0.000000   0.000000   0.000000  
;Inside Drop
1000101774       90.410000  4.000000   0.000000   0.000000   0.000000  
;Regular
1000101775       90.970000  2.680000   0.000000   0.000000   0.000000  
;Regular
1000101776       93.630000  1.760000   0.000000   0.000000   0.000000  
;Regular
1000101777       95.570000  1.910000   0.000000   0.000000   0.000000  
;Regular
1000101778       80.400000  2.310000   0.000000   0.000000   0.000000  
;Regular
1000101779       83.860000  2.800000   0.000000   0.000000   0.000000  
;Regular
1000101780       83.490000  2.750000   0.000000   0.000000   0.000000  
;Regular
1000101781       80.860000  2.140000   0.000000   0.000000   0.000000  
;Regular
1000101782       79.520000  2.370000   0.000000   0.000000   0.000000  
;Regular
1000101783       76.840000  2.390000   0.000000   0.000000   0.000000  
;Regular
1000101784       76.200000  2.740000   0.000000   0.000000   0.000000  
;Regular
1000101785       68.520000  2.310000   0.000000   0.000000   0.000000  
;Regular
1000101786       68.240000  2.360000   0.000000   0.000000   0.000000  
;Regular
1000101787       84.900000  2.330000   0.000000   0.000000   0.000000  
;Regular
1000101788       86.190000  2.460000   0.000000   0.000000   0.000000  
;Regular
1000101789       83.600000  2.120000   0.000000   0.000000   0.000000  
;Regular
1000101790       82.360000  1.550000   0.000000   0.000000   0.000000  
;Regular
1000101791       75.180000  1.260000   0.000000   0.000000   0.000000  
;Regular
1000101792       87.730000  3.450000   0.000000   0.000000   0.000000  
;Regular
1000101793       87.770000  2.000000   0.000000   0.000000   0.000000  
;Regular
1000101794       88.920000  3.120000   0.000000   0.000000   0.000000  
;Regular
1000101795       91.560000  2.610000   0.000000   0.000000   0.000000  
;Regular
1000101796       92.030000  2.430000   0.000000   0.000000   0.000000  
;Regular
1000101802       86.390000  2.760000   0.000000   0.000000   0.000000  
;Regular
1000101803       88.910000  2.750000   0.000000   0.000000   0.000000  
;Regular
1000101804       93.730000  2.030000   0.000000   0.000000   0.000000  
;Regular
1000101805       94.010000  1.710000   0.000000   0.000000   0.000000  
;Regular
1000101806       85.100000  3.050000   0.000000   0.000000   0.000000  
;Regular
1000101807       77.080000  3.970000   0.000000   0.000000   0.000000  
;Regular
1000101810       65.730000  2.470000   0.000000   0.000000   0.000000  
;Regular
1000101812       90.310000  3.210000   0.000000   0.000000   0.000000  
;Regular
1000101813       98.790000  1.940000   0.000000   0.000000   0.000000  
;Regular
1000101814       97.500000  2.000000   0.000000   0.000000   0.000000  
;Regular
1000101815       95.620000  3.820000   0.000000   0.000000   0.000000  
;Regular
1000101816       96.590000  2.400000   0.000000   0.000000   0.000000  
;Regular
1000101817       96.870000  3.330000   0.000000   0.000000   0.000000  
;Regular
1000101818       96.990000  3.850000   0.000000   0.000000   0.000000  
;Regular
1000101819       97.510000  3.120000   0.000000   0.000000   0.000000  
;Regular
1000101820       98.360000  1.740000   0.000000   0.000000   0.000000  
;Regular
1000101821       97.470000  2.234000   0.000000   0.000000   0.000000  
;Regular
1000101822       57.760000  1.670000   0.000000   0.000000   0.000000  
;Regular
1000101823       96.800000  1.200000   0.000000   0.000000   0.000000  
;Regular
1000101824       93.740000  2.000000   0.000000   0.000000   0.000000  
;Regular
1000101825       95.930000  2.910000   0.000000   0.000000   0.000000  
;Regular
1000101826       96.960000  2.338000   0.000000   0.000000   0.000000  
;Regular
1000101827       96.430000  1.430000   0.000000   0.000000   0.000000  
;Regular
1000101828       96.800000  0.770000   0.000000   0.000000   0.000000  
;Regular
1000101832       80.100000  0.930000   0.000000   0.000000   0.000000  
;Regular
1000101833       82.230000  1.731000   0.000000   0.000000   0.000000  
;Regular
1000101834       85.950000  3.050000   0.000000   0.000000   0.000000  
;Regular
1000101835       79.840000  1.230000   0.000000   0.000000   0.000000  
;Regular
1000101836       93.970000  2.780000   0.000000   0.000000   0.000000  
;Regular
1000101837       88.600000  1.500000   0.000000   0.000000   0.000000  
;Regular
1000101838       96.260000  1.310000   0.000000   0.000000   0.000000  
;Regular
1000101839       96.870000  1.100000   0.000000   0.000000   0.000000  
;Regular
1000101840       95.560000  2.330000   0.000000   0.000000   0.000000  
;Outside Drop
1000101844       89.590000  1.280000   0.000000   0.000000   0.000000  
;Regular
1000101845       90.610000  2.100000   0.000000   0.000000   0.000000  
;Regular
1000101846       58.250000  2.470000   0.000000   0.000000   0.000000  
;Regular
1000101847       58.840000  3.910000   0.000000   0.000000   0.000000  
;Regular
1000101848       58.460000  1.440000   0.000000   0.000000   0.000000  
;Regular
1000101849       58.920000  1.540000   0.000000   0.000000   0.000000  
;Regular
1000101850       59.480000  3.390000   0.000000   0.000000   0.000000  
;Regular
1000101851       62.260000  3.150000   0.000000   0.000000   0.000000  
;Regular
1000101852       91.600000  1.550000   0.000000   0.000000   0.000000  
;Outside Drop
1000101853       83.920000  3.430000   0.000000   0.000000   0.000000  
;Outside Drop
1000101854       86.550000  4.110000   0.000000   0.000000   0.000000  
;Regular
1000101855       87.460000  3.630000   0.000000   0.000000   0.000000  
;Regular
1000101856       86.960000  3.170000   0.000000   0.000000   0.000000  
;Regular
1000101857       88.290000  3.550000   0.000000   0.000000   0.000000  
;Regular
1000101858       88.640000  3.490000   0.000000   0.000000   0.000000  
;Regular
1000101859       89.760000  1.950000   0.000000   0.000000   0.000000  
;Outside Drop
1000101864       83.150000  3.230000   0.000000   0.000000   0.000000  
;Inside Ramp
1000101865       85.590000  3.590000   0.000000   0.000000   0.000000  
;Regular
1000101866       85.110000  3.520000   0.000000   0.000000   0.000000  
;Regular
1000101867       86.160000  3.370000   0.000000   0.000000   0.000000  
;Regular
1000101911       67.130000  2.560000   0.000000   0.000000   0.000000  
;Outside Drop
1000101912       83.780000  3.100000   0.000000   0.000000   0.000000  
;Regular
1000101913       86.840000  2.650000   0.000000   0.000000   0.000000  
;Regular
1000101914       89.140000  2.700000   0.000000   0.000000   0.000000  
;Regular
1000101915       91.710000  2.470000   0.000000   0.000000   0.000000  
;Regular
1000101916       93.360000  2.320000   0.000000   0.000000   0.000000  
;Regular
1000101917       94.050000  3.120000   0.000000   0.000000   0.000000  
;Regular
1000101918       95.260000  2.000000   0.000000   0.000000   0.000000  
;Regular
1000101919       94.050000  3.050000   0.000000   0.000000   0.000000  
;Regular
1000101920       94.555000  2.815000   0.000000   0.000000   0.000000  
;Regular
1000101921       94.640000  2.960000   0.000000   0.000000   0.000000  
;Regular
1000101922       94.850000  2.260000   0.000000   0.000000   0.000000  
;Regular
1000101923       95.270000  1.900000   0.000000   0.000000   0.000000  
;Regular
1000101924       87.580000  2.700000   0.000000   0.000000   0.000000  
;Regular
1000101925       89.060000  2.700000   0.000000   0.000000   0.000000  
;Regular
1000101926       90.440000  3.100000   0.000000   0.000000   0.000000  
;Regular
1000101927       92.710000  3.200000   0.000000   0.000000   0.000000  
;Regular
1000101928       93.730000  2.600000   0.000000   0.000000   0.000000  
;Regular
1000101929       94.920000  2.900000   0.000000   0.000000   0.000000  
;Regular
1000101930       95.750000  2.600000   0.000000   0.000000   0.000000  
;Regular
1000101931       96.750000  2.442000   0.000000   0.000000   0.000000  
;Regular
1000101932       93.760000  2.100000   0.000000   0.000000   0.000000  
;Regular
1000101933       91.840000  1.940000   0.000000   0.000000   0.000000  
;Regular
1000101934       92.170000  1.840000   0.000000   0.000000   0.000000  
;Regular
1000101935       92.400000  2.050000   0.000000   0.000000   0.000000  
;Outside Drop
1000101936       93.370000  2.580000   0.000000   0.000000   0.000000  
;Regular
1000101937       93.960000  2.400000   0.000000   0.000000   0.000000  
;Regular
1000101938       92.300000  1.470000   0.000000   0.000000   0.000000  
;Regular
1000101939       94.750000  2.160000   0.000000   0.000000   0.000000  
;Inside Drop
1000101940       95.750000  2.574000   0.000000   0.000000   0.000000  
;Regular
1000101941       96.750000  1.900000   0.000000   0.000000   0.000000  
;Regular
1000101942       95.540000  2.100000   0.000000   0.000000   0.000000  
;Regular
1000101943       95.150000  3.198000   0.000000   0.000000   0.000000  
;Regular
1000101944       97.640000  2.400000   0.000000   0.000000   0.000000  
;Regular
1000101945       92.670000  2.340000   0.000000   0.000000   0.000000  
;Regular
1000101946       93.710000  2.760000   0.000000   0.000000   0.000000  
;Regular
1000101947       94.660000  2.170000   0.000000   0.000000   0.000000  
;Regular
1000101948       95.180000  2.260000   0.000000   0.000000   0.000000  
;Regular
1000101949       95.110000  2.400000   0.000000   0.000000   0.000000  
;Regular
1000101950       95.410000  2.500000   0.000000   0.000000   0.000000  
;Regular
1000101951       95.980000  2.700000   0.000000   0.000000   0.000000  
;Regular
1000101952       96.380000  1.900000   0.000000   0.000000   0.000000  
;Regular
1000101953       96.530000  2.200000   0.000000   0.000000   0.000000  
;Regular
1000101954       93.880000  2.300000   0.000000   0.000000   0.000000  
;Regular
1000101955       94.367592  2.032408   0.000000   0.000000   0.000000  
;Regular
1000101956       94.930000  1.730000   0.000000   0.000000   0.000000  
;Regular
1000101957       95.350000  1.900000   0.000000   0.000000   0.000000  
;Regular
1000101958       93.220000  2.410000   0.000000   0.000000   0.000000  
;Regular
1000101959       93.900000  3.430000   0.000000   0.000000   0.000000  
;Regular
1000101960       95.940000  2.200000   0.000000   0.000000   0.000000  
;Regular
1000101961       96.140000  2.300000   0.000000   0.000000   0.000000  
;Regular
1000101962       94.360000  3.980000   0.000000   0.000000   0.000000  
;Regular
1000101963       94.850000  2.830000   0.000000   0.000000   0.000000  
;Regular
1000101964       95.730000  2.420000   0.000000   0.000000   0.000000  
;Regular
1000101965       66.320000  1.980000   0.000000   0.000000   0.000000  
;Regular
1000101966       69.380000  2.000000   0.000000   0.000000   0.000000  
;Regular
1000101967       66.780000  2.620000   0.000000   0.000000   0.000000  
;Regular
1000101968       65.150000  2.650000   0.000000   0.000000   0.000000  
;Regular
1000101969       68.800000  1.950000   0.000000   0.000000   0.000000  
;Outside Drop
1000101970       70.320000  5.130000   0.000000   0.000000   0.000000  
;Outside Drop
1000101971       63.850000  2.470000   0.000000   0.000000   0.000000  
;Regular
1000101972       67.330000  2.370000   0.000000   0.000000   0.000000  
;Regular
1000101973       67.940000  1.970000   0.000000   0.000000   0.000000  
;Regular
1000101974       77.810000  1.740000   0.000000   0.000000   0.000000  
;Regular
1000101975       63.400000  1.700000   0.000000   0.000000   0.000000  
;Regular
1000101976       63.080000  3.890000   0.000000   0.000000   0.000000  
;Regular
1000101977       62.690000  2.820000   0.000000   0.000000   0.000000  
;Regular
1000101978       58.040000  2.220000   0.000000   0.000000   0.000000  
;Regular
1000101979       57.340000  2.160000   0.000000   0.000000   0.000000  
;Outside Drop
1000101980       59.540000  2.720000   0.000000   0.000000   0.000000  
;Regular
1000101981       51.820000  2.260000   0.000000   0.000000   0.000000  
;Regular
1000101982       53.220000  3.017000   0.000000   0.000000   0.000000  
;Regular
1000101983       54.090000  2.470000   0.000000   0.000000   0.000000  
;Regular
1000101984       59.310000  3.560000   0.000000   0.000000   0.000000  
;Inside Outside Drop
1000101985       59.840000  4.800000   0.000000   0.000000   0.000000  
;Regular
1000101986       65.650000  2.950000   0.000000   0.000000   0.000000  
;Regular
1000101987       66.860000  1.450000   0.000000   0.000000   0.000000  
;Regular
1000101988       95.200000  2.100000   0.000000   0.000000   0.000000  
;Outside Drop
1000101989       96.450000  2.800000   0.000000   0.000000   0.000000  
;Regular
1000101990       80.110000  2.400000   0.000000   0.000000   0.000000  
;Regular
1000101991       82.630000  2.710000   0.000000   0.000000   0.000000  
;Regular
1000101992       83.020000  1.420000   0.000000   0.000000   0.000000  
;Regular
1000101993       86.590000  2.360000   0.000000   0.000000   0.000000  
;Regular
1000101994       88.710000  1.530000   0.000000   0.000000   0.000000  
;Regular
1000101995       87.010000  1.590000   0.000000   0.000000   0.000000  
;Regular
1000101996       88.420000  2.210000   0.000000   0.000000   0.000000  
;Inside Drop
1000101997       89.080000  4.530000   0.000000   0.000000   0.000000  
;Outside Drop
1000101998       89.500000  6.310000   0.000000   0.000000   0.000000  
;Regular
1000101999       90.020000  1.450000   0.000000   0.000000   0.000000  
;Regular
1000102000       91.700000  3.240000   0.000000   0.000000   0.000000  
;Regular
1000102001       92.460000  2.670000   0.000000   0.000000   0.000000  
;Regular
1000102002       92.400000  3.830000   0.000000   0.000000   0.000000  
;Regular
1000102003       93.910000  1.490000   0.000000   0.000000   0.000000  
;Outside Drop
1000102004       89.080000  2.500000   0.000000   0.000000   0.000000  
;Outside Drop
1000102005       91.480000  3.200000   0.000000   0.000000   0.000000  
;Inside Drop
1000102006       91.210000  5.700000   0.000000   0.000000   0.000000  
;Regular
1000102007       94.300000  2.880000   0.000000   0.000000   0.000000  
;Regular
1000102008       93.200000  2.630000   0.000000   0.000000   0.000000  
;Regular
1000102009       92.940000  1.970000   0.000000   0.000000   0.000000  
;Regular
1000102010       92.770000  1.840000   0.000000   0.000000   0.000000  
;Regular
1000102011       92.350000  5.790000   0.000000   0.000000   0.000000  
;Outside Drop
1000102012       92.170000  6.380000   0.000000   0.000000   0.000000  
;Outside Drop
1000102013       91.920000  5.750000   0.000000   0.000000   0.000000  
;Regular
1000102014       91.640000  5.660000   0.000000   0.000000   0.000000  
;Outside Drop
1000102015       91.600000  5.800000   0.000000   0.000000   0.000000  
;Regular
1000102016       97.200000  1.300000   0.000000   0.000000   0.000000  
;Regular
1000102017       71.530000  2.800000   0.000000   0.000000   0.000000  
;Regular
1000102096       66.320000  1.990000   0.000000   0.000000   0.000000  
;Regular
1000102097       71.420000  2.310000   0.000000   0.000000   0.000000  
;Regular
1000102098       73.620000  2.060000   0.000000   0.000000   0.000000  
;Regular
1000102272       65.340000  1.830000   0.000000   0.000000   0.000000  
;Inside Drop
1000102273       63.410000  2.650000   0.000000   0.000000   0.000000  
;Regular
1000102274       64.260000  2.710000   0.000000   0.000000   0.000000  
;Regular
1000102275       64.300000  2.710000   0.000000   0.000000   0.000000  
;Regular
1000102276       65.280000  2.380000   0.000000   0.000000   0.000000  
;Regular
1000102277       66.020000  2.300000   0.000000   0.000000   0.000000  
;Regular
1000102278       65.160000  2.698000   0.000000   0.000000   0.000000  
;Regular
1000102279       67.070000  2.700000   0.000000   0.000000   0.000000  
;Regular
1000102280       68.410000  2.500000   0.000000   0.000000   0.000000  
;Regular
1000102281       69.620000  2.440000   0.000000   0.000000   0.000000  
;Regular
1000102282       65.770000  2.589000   0.000000   0.000000   0.000000  
;Regular
1000102283       66.550000  2.336000   0.000000   0.000000   0.000000  
;Regular
1000102284       67.830000  2.199000   0.000000   0.000000   0.000000  
;Regular
1000102308       25.260000  1.570000   0.000000   0.000000   0.000000  
;Regular
1000102309       25.630000  1.300000   0.000000   0.000000   0.000000  
;Regular
1000102310       27.010000  1.870000   0.000000   0.000000   0.000000  
;Outside Drop
1000102311       24.670000  3.520000   0.000000   0.000000   0.000000  
;Regular
1000102312       26.380000  1.950000   0.000000   0.000000   0.000000  
;Regular
1000102313       27.000000  1.780000   0.000000   0.000000   0.000000  
;Regular
1000102324       31.740000  2.360000   0.000000   0.000000   0.000000  
;Regular
1000102325       33.630000  1.753000   0.000000   0.000000   0.000000  
;Manhole Chamber
1000102326       33.500000  1.140000   0.000000   0.000000   0.000000  
;Regular
1000102327       33.100000  1.240000   0.000000   0.000000   0.000000  
;Regular
1000102328       33.150000  1.830000   0.000000   0.000000   0.000000  
;Regular
1000102329       33.060000  1.760000   0.000000   0.000000   0.000000  
;Regular
1000102330       32.640000  2.240000   0.000000   0.000000   0.000000  
;Regular
1000102331       31.960000  2.660000   0.000000   0.000000   0.000000  
;Regular
1000102332       31.720000  2.680000   0.000000   0.000000   0.000000  
;Regular
1000102333       32.900000  1.950000   0.000000   0.000000   0.000000  
;Regular
1000102334       33.180000  1.640000   0.000000   0.000000   0.000000  
;Regular
1000102335       30.100000  2.650000   0.000000   0.000000   0.000000  
;Regular
1000102336       28.290000  2.740000   0.000000   0.000000   0.000000  
;Regular
1000102337       26.430000  2.800000   0.000000   0.000000   0.000000  
;Regular
1000102338       24.780000  2.610000   0.000000   0.000000   0.000000  
;Regular
1000102339       22.050000  2.800000   0.000000   0.000000   0.000000  
;Regular
1000102340       21.515294  3.334706   0.000000   0.000000   0.000000  
;Regular
1000102413       64.990000  2.140000   0.000000   0.000000   0.000000  
;Regular
1000102414       69.300000  2.300000   0.000000   0.000000   0.000000  
;Regular
1000102415       70.370000  2.010000   0.000000   0.000000   0.000000  
;Inside Drop
1000102416       19.390000  4.000000   0.000000   0.000000   0.000000  
;Regular
1000102417       18.350000  1.470000   0.000000   0.000000   0.000000  
;Regular
1000102418       17.460000  1.430000   0.000000   0.000000   0.000000  
;Regular
1000102419       17.940000  1.690000   0.000000   0.000000   0.000000  
;Regular
1000102420       31.210000  2.030000   0.000000   0.000000   0.000000  
;Inside Drop
1000102421       34.110000  4.030000   0.000000   0.000000   0.000000  
;Regular
1000102422       43.030000  3.000000   0.000000   0.000000   0.000000  
;Regular
1000102423       57.270000  1.570000   0.000000   0.000000   0.000000  
;Regular
1000102424       54.360000  2.190000   0.000000   0.000000   0.000000  
;Regular
1000102425       56.490000  1.420000   0.000000   0.000000   0.000000  
;Outside Drop
1000102426       57.350000  1.910000   0.000000   0.000000   0.000000  
;Regular
1000102427       60.180000  2.100000   0.000000   0.000000   0.000000  
;Regular
1000102428       58.890000  2.460000   0.000000   0.000000   0.000000  
;Regular
1000102429       19.380000  2.400000   0.000000   0.000000   0.000000  
;Regular
1000102430       26.430000  1.760000   0.000000   0.000000   0.000000  
;Regular
1000102431       25.910000  1.790000   0.000000   0.000000   0.000000  
;Outside Drop
1000102432       23.410000  3.240000   0.000000   0.000000   0.000000  
;Outside Drop
1000102433       21.370000  3.230000   0.000000   0.000000   0.000000  
;Regular
1000102434       20.610000  2.040000   0.000000   0.000000   0.000000  
;Inside Drop
1000102435       20.370000  2.580000   0.000000   0.000000   0.000000  
;Regular
1000102436       20.840000  2.976000   0.000000   0.000000   0.000000  
;Regular
1000102437       21.220000  3.310000   0.000000   0.000000   0.000000  
;Regular
1000102438       23.510000  2.020000   0.000000   0.000000   0.000000  
;Outside Drop
1000102439       21.620000  3.370000   0.000000   0.000000   0.000000  
;Regular
1000102440       22.000000  2.240000   0.000000   0.000000   0.000000  
;Outside Drop
1000102441       55.000000  2.900000   0.000000   0.000000   0.000000  
;Inside Drop
1000102442       67.680000  2.540000   0.000000   0.000000   0.000000  
;Inside Drop
1000102443       63.610000  2.700000   0.000000   0.000000   0.000000  
;Regular
1000102444       66.930000  2.150000   0.000000   0.000000   0.000000  
;Regular
1000102445       65.170000  2.310000   0.000000   0.000000   0.000000  
;Regular
1000102446       64.700000  1.830000   0.000000   0.000000   0.000000  
;Inside Drop
1000102447       64.170000  1.940000   0.000000   0.000000   0.000000  
;Regular
1000102448       65.670000  2.080000   0.000000   0.000000   0.000000  
;Regular
1000102449       62.430000  2.070000   0.000000   0.000000   0.000000  
;Regular
1000102450       66.760000  2.680000   0.000000   0.000000   0.000000  
;Regular
1000102451       66.550000  2.730000   0.000000   0.000000   0.000000  
;Regular
1000102452       65.340000  2.100000   0.000000   0.000000   0.000000  
;Regular
1000102453       61.660000  1.940000   0.000000   0.000000   0.000000  
;Regular
1000102454       21.160000  1.640000   0.000000   0.000000   0.000000  
;Regular
1000102455       20.920000  1.660000   0.000000   0.000000   0.000000  
;Regular
1000102456       20.510000  2.500000   0.000000   0.000000   0.000000  
;Regular
1000102457       20.430000  2.780000   0.000000   0.000000   0.000000  
;Outside Drop
1000102458       17.540000  5.200000   0.000000   0.000000   0.000000  
;Regular
1000102459       66.090000  1.990000   0.000000   0.000000   0.000000  
;Regular
1000102460       70.030000  1.900000   0.000000   0.000000   0.000000  
;Regular
1000102461       68.700000  2.370000   0.000000   0.000000   0.000000  
;Regular
1000102462       67.870000  2.660000   0.000000   0.000000   0.000000  
;Inside Drop
1000102463       46.250000  2.430000   0.000000   0.000000   0.000000  
;Regular
1000102464       56.290000  1.677000   0.000000   0.000000   0.000000  
;Regular
1000102465       63.650000  2.450000   0.000000   0.000000   0.000000  
;Regular
1000102466       66.030000  2.256000   0.000000   0.000000   0.000000  
;Outside Drop
1000102467       65.380000  2.350000   0.000000   0.000000   0.000000  
;Regular
1000102468       65.020000  2.480000   0.000000   0.000000   0.000000  
;Regular
1000102469       64.890000  2.470000   0.000000   0.000000   0.000000  
;Regular