[OPTIONS]
;Option and Files Scenario Set: BASE
FLOW_UNITS	LPS
INFILTRATION	HORTON
FLOW_ROUTING	DYNWAVE
ALLOW_PONDING	NO
DRY_DAYS	5.000000
SKIP_STEADY_STATE 	NO
IGNORE_RAINFALL	NO
IGNORE_SNOWMELT	NO
IGNORE_GROUNDWATER	NO
IGNORE_QUALITY	NO
FORCE_MAIN_EQUATION	H-W
LINK_OFFSETS	DEPTH
MIN_SLOPE	0.000000
START_DATE	01/01/2002
START_TIME	00:00
END_DATE	01/01/2002
END_TIME	23:00
REPORT_START_DATE	01/01/2002
REPORT_START_TIME	00:00
SWEEP_START	01/01
SWEEP_END	12/31
WET_STEP	01:00:00
DRY_STEP	23:00:00
ROUTING_STEP	10
REPORT_STEP	00:05:00
INERTIAL_DAMPING	NONE
VARIABLE_STEP	0.750000
MINIMUM_STEP	0.5
LENGTHENING_STEP	0
MIN_SURFAREA	0.000000
NORMAL_FLOW_LIMITED	BOTH
MAX_TRIALS	4
HEAD_TOLERANCE	0.005000

[FILES]

[RAINGAGES]

[HYDROGRAPHS]

[TEMPERATURE]

[ADJUSTMENTS]

[SUBCATCHMENTS]

[SUBAREAS]

[INFILTRATION]

[AQUIFERS]

[GROUNDWATER]

[GWF]

[SNOWPACKS]

[JUNCTIONS]
20SMH0001	175.778000	3.667000	0.000000	0.000000	0.000000
20SMH0002	176.043000	2.200000	0.000000	0.000000	0.000000
20SMH0003	176.195000	2.000000	0.000000	0.000000	0.000000
20SMH0004	176.350000	1.900000	0.000000	0.000000	0.000000
20SMH0005	176.800000	2.163000	0.000000	0.000000	0.000000
20SMH0006	177.073000	2.600000	0.000000	0.000000	0.000000
20SMH0007	177.447000	2.200000	0.000000	0.000000	0.000000
20SMH0008	177.750000	1.850000	0.000000	0.000000	0.000000
20SMH0009	178.013000	1.600000	0.000000	0.000000	0.000000
20SMH0010	178.284000	1.600000	0.000000	0.000000	0.000000
20SMH0011	179.217000	3.350000	0.000000	0.000000	0.000000
20SMH0012	179.779000	2.050000	0.000000	0.000000	0.000000
20SMH0013	179.920000	2.780000	0.000000	0.000000	0.000000
20SMH0014	180.370000	3.280000	0.000000	0.000000	0.000000
20SMH0015	180.483000	2.850000	0.000000	0.000000	0.000000
20SMH0016	180.845000	3.770000	0.000000	0.000000	0.000000
20SMH0017	181.446000	3.200000	0.000000	0.000000	0.000000
20SMH0018	182.875000	4.200000	0.000000	0.000000	0.000000
20SMH0019	183.338000	3.100000	0.000000	0.000000	0.000000
20SMH0020	181.164000	3.150000	0.000000	0.000000	0.000000
20SMH0021	184.163000	4.780000	0.000000	0.000000	0.000000
20SMH0023	184.614000	4.300000	0.000000	0.000000	0.000000
20SMH0024	184.982000	3.400000	0.000000	0.000000	0.000000
20SMH0025	185.452000	4.080000	0.000000	0.000000	0.000000
20SMH0026	185.797000	3.300000	0.000000	0.000000	0.000000
20SMH0027	186.182000	3.050000	0.000000	0.000000	0.000000
20SMH0028	190.800000	3.180000	0.000000	0.000000	0.000000
20SMH0029	186.962000	4.050000	0.000000	0.000000	0.000000
20SMH0030	189.119000	4.770000	0.000000	0.000000	0.000000
20SMH0031	192.176000	4.720000	0.000000	0.000000	0.000000
20SMH0032	194.992000	3.700000	0.000000	0.000000	0.000000
20SMH0033	196.020000	5.200000	0.000000	0.000000	0.000000
20SMH0034	185.815000	3.530000	0.000000	0.000000	0.000000
20SMH0035	186.191000	4.200000	0.000000	0.000000	0.000000
20SMH0036	186.873000	1.961000	0.000000	0.000000	0.000000
20SMH0037	188.054000	3.400000	0.000000	0.000000	0.000000
20SMH0038	183.118000	3.320000	0.000000	0.000000	0.000000
20SMH0039	184.378000	3.950000	0.000000	0.000000	0.000000
20SMH0040	188.791000	3.450000	0.000000	0.000000	0.000000
20SMH0041	189.423000	4.280000	0.000000	0.000000	0.000000
20SMH0042	183.033000	3.700000	0.000000	0.000000	0.000000
20SMH0043	183.458000	3.300000	0.000000	0.000000	0.000000
20SMH0044	184.904000	2.900000	0.000000	0.000000	0.000000
20SMH0045	185.845000	2.950000	0.000000	0.000000	0.000000
20SMH0046	186.422000	3.360000	0.000000	0.000000	0.000000
20SMH0047	187.516000	3.200000	0.000000	0.000000	0.000000
20SMH0048	187.030000	2.500000	0.000000	0.000000	0.000000
20SMH0049	186.774000	2.350000	0.000000	0.000000	0.000000
20SMH0050	181.697000	3.100000	0.000000	0.000000	0.000000
20SMH0051	182.290000	3.900000	0.000000	0.000000	0.000000
20SMH0052	182.773000	3.330000	0.000000	0.000000	0.000000
20SMH0053	183.831000	3.580000	0.000000	0.000000	0.000000
20SMH0054	184.484000	3.910000	0.000000	0.000000	0.000000
20SMH0055	177.938000	3.200000	0.000000	0.000000	0.000000
20SMH0056	179.142000	3.400000	0.000000	0.000000	0.000000
20SMH0057	179.407000	5.400000	0.000000	0.000000	0.000000
20SMH0058	179.687000	6.050000	0.000000	0.000000	0.000000
20SMH0059	179.915000	6.300000	0.000000	0.000000	0.000000
20SMH0060	180.369000	5.930000	0.000000	0.000000	0.000000
20SMH0061	180.539000	6.050000	0.000000	0.000000	0.000000
20SMH0062	180.983000	6.850000	0.000000	0.000000	0.000000
20SMH0063	181.391000	5.880000	0.000000	0.000000	0.000000
20SMH0064	181.834000	3.460000	0.000000	0.000000	0.000000
20SMH0065	182.189000	2.930000	0.000000	0.000000	0.000000
20SMH0066	184.386000	3.910000	0.000000	0.000000	0.000000
20SMH0067	184.775000	3.850000	0.000000	0.000000	0.000000
20SMH0068	186.975000	3.450000	0.000000	0.000000	0.000000
20SMH0069	184.014000	2.700000	0.000000	0.000000	0.000000
20SMH0070	183.782000	3.300000	0.000000	0.000000	0.000000
20SMH0071	185.342000	2.900000	0.000000	0.000000	0.000000
20SMH0072	183.950000	3.600000	0.000000	0.000000	0.000000
20SMH0073	184.481000	3.850000	0.000000	0.000000	0.000000
20SMH0074	185.177000	3.550000	0.000000	0.000000	0.000000
20SMH0075	185.777000	2.600000	0.000000	0.000000	0.000000
20SMH0076	186.349000	3.200000	0.000000	0.000000	0.000000
20SMH0077	187.307000	3.400000	0.000000	0.000000	0.000000
20SMH0078	184.384000	2.700000	0.000000	0.000000	0.000000
20SMH0079	187.934000	3.450000	0.000000	0.000000	0.000000
20SMH0080	181.758000	2.850000	0.000000	0.000000	0.000000
20SMH0081	184.925000	3.400000	0.000000	0.000000	0.000000
20SMH0082	185.412000	3.700000	0.000000	0.000000	0.000000
20SMH0083	186.161000	3.370000	0.000000	0.000000	0.000000
20SMH0084	187.563000	3.700000	0.000000	0.000000	0.000000
20SMH0085	177.786000	2.400000	0.000000	0.000000	0.000000
20SMH0086	178.419000	3.550000	0.000000	0.000000	0.000000
20SMH0087	181.828000	4.850000	0.000000	0.000000	0.000000
20SMH0088	177.012000	2.000000	0.000000	0.000000	0.000000
20SMH0089	179.354000	3.150000	0.000000	0.000000	0.000000
20SMH0090	180.152000	2.900000	0.000000	0.000000	0.000000
20SMH0091	180.886000	2.400000	0.000000	0.000000	0.000000
20SMH0092	176.077000	3.600000	0.000000	0.000000	0.000000
20SMH0093	178.676000	3.300000	0.000000	0.000000	0.000000
20SMH0094	179.968000	2.850000	0.000000	0.000000	0.000000
20SMH0095	181.296000	2.920000	0.000000	0.000000	0.000000
20SMH0096	181.508000	4.350000	0.000000	0.000000	0.000000
20SMH0097	181.763000	5.350000	0.000000	0.000000	0.000000
20SMH0098	184.266000	3.450000	0.000000	0.000000	0.000000
20SMH0099	186.247000	2.800000	0.000000	0.000000	0.000000
20SMH0100	179.510000	3.250000	0.000000	0.000000	0.000000
20SMH0101	180.106000	3.800000	0.000000	0.000000	0.000000
20SMH0102	180.718000	4.500000	0.000000	0.000000	0.000000
20SMH0103	181.397000	3.100000	0.000000	0.000000	0.000000
20SMH0104	181.990000	3.700000	0.000000	0.000000	0.000000
20SMH0105	183.457000	3.530000	0.000000	0.000000	0.000000
20SMH0106	182.845000	4.300000	0.000000	0.000000	0.000000
20SMH0107	183.913000	4.850000	0.000000	0.000000	0.000000
20SMH0108	186.415000	5.100000	0.000000	0.000000	0.000000
20SMH0109	184.174000	4.300000	0.000000	0.000000	0.000000
20SMH0110	181.262000	3.050000	0.000000	0.000000	0.000000
20SMH0111	184.323000	3.750000	0.000000	0.000000	0.000000
20SMH0112	185.209000	4.050000	0.000000	0.000000	0.000000
20SMH0113	185.650000	3.580000	0.000000	0.000000	0.000000
20SMH0114	186.755000	3.300000	0.000000	0.000000	0.000000
20SMH0115	182.660000	1.950000	0.000000	0.000000	0.000000
20SMH0116	183.158000	4.100000	0.000000	0.000000	0.000000
20SMH0117	184.642000	3.650000	0.000000	0.000000	0.000000
20SMH0118	187.862000	3.000000	0.000000	0.000000	0.000000
20SMH0119	183.742000	2.000000	0.000000	0.000000	0.000000
20SMH0120	184.327000	3.650000	0.000000	0.000000	0.000000
20SMH0121	180.624000	2.850000	0.000000	0.000000	0.000000
20SMH0122	187.102000	3.350000	0.000000	0.000000	0.000000
20SMH0123	183.299000	3.050000	0.000000	0.000000	0.000000
20SMH0124	189.100000	2.631000	0.000000	0.000000	0.000000
20SMH0125	185.123000	3.100000	0.000000	0.000000	0.000000
20SMH0126	182.415000	3.100000	0.000000	0.000000	0.000000
20SMH0127	183.591000	4.700000	0.000000	0.000000	0.000000
20SMH0128	184.305000	5.800000	0.000000	0.000000	0.000000
20SMH0129	197.935000	4.112000	0.000000	0.000000	0.000000
20SMH0130	197.328000	3.750000	0.000000	0.000000	0.000000
20SMH0131	181.336000	3.200000	0.000000	0.000000	0.000000
20SMH0132	183.273000	2.520000	0.000000	0.000000	0.000000
20SMH0133	187.007000	3.100000	0.000000	0.000000	0.000000
20SMH0134	187.463000	2.820000	0.000000	0.000000	0.000000
20SMH0135	189.074000	3.100000	0.000000	0.000000	0.000000
20SMH0136	0.000000	193.639000	0.000000	0.000000	0.000000
20SMH0144	190.159000	2.930000	0.000000	0.000000	0.000000
20SMH0145	192.650000	3.260000	0.000000	0.000000	0.000000
20SMH0146	194.831000	2.400000	0.000000	0.000000	0.000000
20SMH0147	197.697000	1.650000	0.000000	0.000000	0.000000
20SMH0148	185.219000	3.000000	0.000000	0.000000	0.000000
20SMH0149	181.518000	2.950000	0.000000	0.000000	0.000000
20SMH0150	182.438000	2.900000	0.000000	0.000000	0.000000
20SMH0151	184.425000	2.780000	0.000000	0.000000	0.000000
20SMH0152	184.850000	2.800000	0.000000	0.000000	0.000000
20SMH0153	185.237000	2.800000	0.000000	0.000000	0.000000
20SMH0154	184.470000	6.129000	0.000000	0.000000	0.000000
20SMH0155	184.561000	5.800000	0.000000	0.000000	0.000000
20SMH0156	184.893000	4.950000	0.000000	0.000000	0.000000
20SMH0157	185.590000	3.200000	0.000000	0.000000	0.000000
20SMH0159	185.263000	5.100000	0.000000	0.000000	0.000000
20SMH0160	185.700000	5.300000	0.000000	0.000000	0.000000
20SMH0161	186.116000	5.350000	0.000000	0.000000	0.000000
20SMH0162	186.484000	5.560000	0.000000	0.000000	0.000000
20SMH0164	190.019000	2.950000	0.000000	0.000000	0.000000
20SMH0165	187.366000	3.050000	0.000000	0.000000	0.000000
20SMH0166	186.331000	3.000000	0.000000	0.000000	0.000000
20SMH0167	186.090000	3.220000	0.000000	0.000000	0.000000
20SMH0168	184.016000	3.000000	0.000000	0.000000	0.000000
20SMH0169	184.487000	3.300000	0.000000	0.000000	0.000000
20SMH0170	184.988000	2.500000	0.000000	0.000000	0.000000
20SMH0171	185.192000	2.450000	0.000000	0.000000	0.000000
20SMH0172	181.913000	3.100000	0.000000	0.000000	0.000000
20SMH0173	185.367000	1.550000	0.000000	0.000000	0.000000
20SMH0174	184.568000	0.920000	0.000000	0.000000	0.000000
; Dupliacte ID with STAN1 MH
20SMH0175	184.484000	4.950000	0.000000	0.000000	0.000000
20SMH0176	185.130000	3.400000	0.000000	0.000000	0.000000
20SMH0177	183.844000	1.207000	0.000000	304.878049	0.000000
20SMH0178	181.004000	4.606000	0.000000	0.000000	0.000000
20SMH0179	181.896000	2.850000	0.000000	0.000000	0.000000
20SMH0180	182.499000	3.250000	0.000000	0.000000	0.000000
20SMH0185	187.200000	1.350000	0.000000	0.000000	0.000000
20SMH0193	182.720000	3.150000	0.000000	0.000000	0.000000
DUMMY	0.000000	193.639000	0.000000	0.000000	0.000000
DUMMY_OPP	0.000000	193.639000	0.000000	0.000000	0.000000
; For Modeling Purposes
NODE1	188.982000	2.768000	0.000000	0.000000	0.000000
; For modeling purposes
NODE2	185.608000	3.792000	0.000000	0.000000	0.000000
PS_CHAMBER1	178.156000	2.594000	0.000000	304.878049	0.000000
; Duplicate of 20SMH0175
STAN1	186.431000	2.000000	0.000000	0.000000	0.000000
; New Manhole
STAN10	186.154000	2.760000	0.000000	0.000000	0.000000
; New Manhole
STAN11	185.447000	5.000000	0.000000	0.000000	0.000000
; New Manhole
STAN12	185.341000	5.380000	0.000000	0.000000	0.000000
; New Manhole
STAN13	184.957000	6.350000	0.000000	0.000000	0.000000
; New Manhole
STAN14	184.665000	6.235000	0.000000	0.000000	0.000000
; New Manhole
STAN15	182.927000	3.850000	0.000000	0.000000	0.000000
; New Manhole
STAN16	183.244000	4.750000	0.000000	0.000000	0.000000
; Duplicate ID to 20SMH0164
STAN2	189.656000	3.100000	0.000000	0.000000	0.000000
; New Manhole
STAN35	183.493000	4.757000	0.000000	0.000000	0.000000
; New Manhole
STAN36	185.300000	2.950000	0.000000	0.000000	0.000000
; New Manhole
STAN37	184.550000	2.950000	0.000000	0.000000	0.000000
; New Manhole
STAN4	186.146000	3.420000	0.000000	0.000000	0.000000
; New Manhole
STAN40	178.000000	4.400000	0.000000	304.878049	0.000000
; New Manhole
STAN41	182.162000	6.588000	0.000000	0.000000	0.000000
; New Manhole
STAN42	181.698000	5.552000	0.000000	0.000000	0.000000
; New Manhole
STAN43	186.692000	11.058000	0.000000	0.000000	0.000000
; New Manhole
STAN44	186.450000	6.050000	0.000000	0.000000	0.000000
; New Manhole
STAN45	185.833000	6.417000	0.000000	0.000000	0.000000
; New Manhole
STAN5	185.578000	4.200000	0.000000	0.000000	0.000000
; New Manhole
STAN53	185.300000	2.950000	0.000000	0.000000	0.000000
; New Manhole
STAN54	184.550000	2.950000	0.000000	0.000000	0.000000
; New Manhole
STAN6	184.927000	5.100000	0.000000	0.000000	0.000000
; New Manhole
STAN60	185.850000	2.950000	0.000000	0.000000	0.000000
; New Manhole
STAN61	185.515000	4.735000	0.000000	0.000000	0.000000
; New Manhole
STAN63	183.829000	4.421000	0.000000	0.000000	0.000000
; New Manhole
STAN64	186.800000	2.950000	0.000000	0.000000	0.000000
; New Manhole
STAN65	185.618000	2.982000	0.000000	0.000000	0.000000
; New Manhole
STAN66	183.627000	3.623000	0.000000	0.000000	0.000000
; New Manhole
STAN67	184.300000	2.950000	0.000000	0.000000	0.000000
; New Manhole
STAN68	184.069000	3.931000	0.000000	0.000000	0.000000
; New Manhole
STAN7	185.942000	3.600000	0.000000	0.000000	0.000000
; New Manhole
STAN74	186.680000	0.320000	0.000000	0.000000	0.000000
; New Manhole
STAN8	187.574000	1.900000	0.000000	0.000000	0.000000
; New Manhole
STAN81	186.550000	2.950000	0.000000	0.000000	0.000000
; New Manhole
STAN82	183.050000	2.950000	0.000000	0.000000	0.000000
; New Manhole
STAN83	182.572000	5.528000	0.000000	0.000000	0.000000
; New Manhole
STAN85	188.052000	0.698000	0.000000	0.000000	0.000000
; New Manhole
STAN87	188.569000	2.181000	0.000000	0.000000	0.000000
; New Manhole
STAN9	186.691000	2.800000	0.000000	0.000000	0.000000
WWTP	177.500000	5.750000	0.000000	0.000000	0.000000

[OUTFALLS]
; New Manhole
STAN69	0.000000	FREE	NO
; New Manhole
WWTP_OUTLET	177.000000	FREE	NO

[DIVIDERS]

[STORAGE]
MCKAY_WW	178.000000	3.000000	2.500000	FUNCTIONAL	0.000000	0.000000	7.068583	0.000000	0.000000
OUSE_PS	173.355000	3.545000	0.800000	FUNCTIONAL	0.000000	0.000000	7.306166	0.000000	0.000000
PROP_PRINCESS_WW	176.000000	4.000000	3.000000	FUNCTIONAL	0.000000	0.000000	28.274334	0.000000	0.000000

[CONDUITS]
0	20SMH0177	20SMH0119	37.027000	0.010000	0.000000	0.018000	0.000000	0.000000
20SFM002	PS_CHAMBER1	WWTP	471.000000	0.010000	0.000000	3.551000	0.000000	0.000000
; Duplicate ID to STANP1
20SM008	20SMH0135	20SMH0134	49.801000	0.013000	0.000000	0.060000	0.000000	0.000000
20SM009	20SMH0134	20SMH0133	51.550000	0.013000	0.000000	0.050000	0.000000	0.000000
20SM010	20SMH0133	20SMH0027	100.693000	0.013000	0.000000	0.070000	0.000000	0.000000
20SM012	20SMH0028	20SMH0027	98.958000	0.013000	0.000000	0.210000	0.000000	0.000000
20SM012-B	20SMH0028	20SMH0027	98.958000	0.013000	0.000000	0.210000	0.000000	0.000000
20SM013	20SMH0027	20SMH0026	101.782000	0.013000	0.000000	0.050000	0.000000	0.000000
20SM014	20SMH0026	20SMH0025	100.981000	0.013000	0.000000	0.050000	0.000000	0.000000
20SM015	20SMH0025	20SMH0024	100.120000	0.013000	0.000000	0.050000	0.000000	0.000000
20SM016	20SMH0024	20SMH0023	101.077000	0.013000	0.000000	0.070000	0.000000	0.000000
20SM017	20SMH0122	20SMH0024	82.082000	0.013000	0.000000	0.650000	0.000000	0.000000
20SM018	20SMH0173	20SMH0024	39.689000	0.013000	0.000000	0.100000	0.000000	0.000000
20SM019	20SMH0036	20SMH0035	91.503000	0.013000	0.000000	0.103000	0.000000	0.000000
20SM020	20SMH0037	20SMH0035	70.176000	0.013000	0.000000	0.450000	0.000000	0.000000
20SM021	20SMH0035	20SMH0023	99.948000	0.013000	0.000000	0.070000	0.000000	0.000000
20SM022	20SMH0129	20SMH0130	18.114000	0.013000	0.000000	0.100000	0.000000	0.000000
20SM023	20SMH0130	20SMH0033	59.421000	0.013000	0.000000	0.150000	0.000000	0.000000
20SM024	20SMH0033	20SMH0032	35.786000	0.013000	0.000000	0.050000	0.000000	0.000000
20SM025	20SMH0032	20SMH0031	74.515000	0.013000	0.000000	0.080000	0.000000	0.000000
20SM026	20SMH0031	20SMH0030	76.643000	0.013000	0.000000	0.520000	0.000000	0.000000
20SM027	20SMH0030	20SMH0029	72.390000	0.013000	0.000000	0.050000	0.000000	0.000000
20SM028	20SMH0029	NODE2	49.875000	0.013000	0.000000	0.000000	0.000000	0.000000
20SM029	NODE2	20SMH0021	51.402000	0.013000	0.000000	0.050000	0.000000	0.000000
20SM030	20SMH0147	20SMH0146	68.003000	0.013000	0.000000	0.500000	0.000000	0.000000
20SM031	20SMH0146	20SMH0145	23.115000	0.013000	0.000000	0.060000	0.000000	0.000000
20SM032	20SMH0145	20SMH0144	25.046000	0.013000	0.000000	0.050000	0.000000	0.000000
20SM033	20SMH0144	NODE1	12.057000	0.013000	0.000000	0.000000	0.000000	0.000000
20SM034	20SMH0124	NODE1	27.940000	0.013000	0.000000	0.000000	0.000000	0.000000
20SM035	NODE1	20SMH0040	19.555000	0.013000	0.000000	0.109000	0.000000	0.000000
20SM036	20SMH0041	20SMH0040	49.565000	0.013000	0.000000	0.060000	0.000000	0.000000
20SM037	20SMH0040	20SMH0039	49.076000	0.013000	0.000000	0.100000	0.000000	0.000000
20SM038	20SMH0039	20SMH0172	52.226000	0.013000	0.000000	0.400000	0.000000	0.000000
20SM039	20SMH0023	20SMH0021	120.770000	0.013000	0.000000	0.030000	0.000000	0.000000
20SM040	20SMH0021	20SMH0172	121.094000	0.013000	0.000000	0.100000	0.000000	0.000000
20SM041	20SMH0172	20SMH0020	41.932000	0.013000	0.000000	0.050000	0.000000	0.000000
20SM042	20SMH0020	20SMH0016	69.912000	0.013000	0.000000	0.170000	0.000000	0.000000
20SM043	20SMH0038	20SMH0172	76.651000	0.013000	0.000000	0.400000	0.000000	0.000000
20SM044	20SMH0034	20SMH0021	76.273000	0.013000	0.000000	0.050000	0.000000	0.000000
20SM045	20SMH0018	20SMH0017	85.372000	0.013000	0.000000	0.100000	0.000000	0.000000
20SM046	20SMH0123	20SMH0017	55.648000	0.013000	0.000000	0.100000	0.000000	0.000000
20SM047	20SMH0019	20SMH0016	84.799000	0.013000	0.000000	0.220000	0.000000	0.000000
20SM048	20SMH0017	20SMH0016	31.574000	0.013000	0.000000	0.220000	0.000000	0.000000
20SM049	20SMH0016	20SMH0015	86.827000	0.013000	0.000000	0.050000	0.000000	0.000000
20SM050	20SMH0015	20SMH0014	18.951000	0.013000	0.000000	0.080000	0.000000	0.000000
20SM051	20SMH0014	20SMH0013	108.465000	0.013000	0.000000	0.050000	0.000000	0.000000
20SM052	20SMH0013	20SMH0012	72.447000	0.013000	0.000000	0.050000	0.000000	0.000000
20SM053	20SMH0012	20SMH0011	71.590000	0.013000	0.000000	0.150000	0.000000	0.000000
20SM054	20SMH0011	20SMH0010	69.445000	0.013000	0.000000	0.100000	0.000000	0.000000
20SM055	20SMH0010	20SMH0009	65.641000	0.013000	0.000000	0.080000	0.000000	0.000000
20SM056	20SMH0009	20SMH0008	80.381000	0.013000	0.000000	0.000000	0.000000	0.000000
20SM057	20SMH0008	20SMH0007	74.338000	0.013000	0.000000	0.000000	0.000000	0.000000
20SM058	20SMH0007	20SMH0006	50.783000	0.013000	0.000000	0.100000	0.000000	0.000000
20SM059	20SMH0047	20SMH0046	75.751000	0.013000	0.000000	0.060000	0.000000	0.000000
20SM060	20SMH0048	20SMH0046	75.912000	0.013000	0.000000	0.060000	0.000000	0.000000
20SM061	20SMH0049	20SMH0046	67.339000	0.013000	0.000000	0.060000	0.000000	0.000000
20SM062	20SMH0046	20SMH0045	61.629000	0.013000	0.000000	0.050000	0.000000	0.000000
20SM063	20SMH0045	20SMH0044	59.080000	0.013000	0.000000	0.050000	0.000000	0.000000
20SM064	20SMH0044	20SMH0043	61.311000	0.013000	0.000000	0.020000	0.000000	0.000000
20SM065	20SMH0043	20SMH0042	96.943000	0.013000	0.000000	0.060000	0.000000	0.000000
20SM066	20SMH0042	20SMH0013	101.071000	0.013000	0.000000	1.010000	0.000000	0.000000
20SM067	20SMH0054	20SMH0053	91.650000	0.013000	0.000000	0.050000	0.000000	0.000000
20SM068	20SMH0053	20SMH0052	63.282000	0.013000	0.000000	0.030000	0.000000	0.000000
20SM069	20SMH0052	20SMH0050	63.676000	0.013000	0.000000	0.040000	0.000000	0.000000
20SM070	20SMH0051	20SMH0050	70.824000	0.013000	0.000000	0.060000	0.000000	0.000000
20SM071	20SMH0115	20SMH0050	78.146000	0.013000	0.000000	0.040000	0.000000	0.000000
20SM072	20SMH0050	20SMH0121	56.881000	0.013000	0.000000	0.050000	0.000000	0.000000
20SM073	20SMH0121	20SMH0011	55.718000	0.013000	0.000000	0.150000	0.000000	0.000000
20SM074	20SMH0068	20SMH0067	41.467000	0.013000	0.000000	0.350000	0.000000	0.000000
20SM075	20SMH0067	20SMH0168	54.850000	0.013000	0.000000	0.100000	0.000000	0.000000
20SM076	20SMH0168	20SMH0063	45.755000	0.013000	0.000000	0.080000	0.000000	0.000000
20SM077	20SMH0174	20SMH0168	51.875000	0.013000	0.000000	0.100000	0.000000	0.000000
20SM078	20SMH0066	20SMH0063	94.776000	0.013000	0.000000	0.080000	0.000000	0.000000
20SM079	20SMH0063	20SMH0062	101.208000	0.013000	0.000000	0.050000	0.000000	0.000000
20SM080	20SMH0062	20SMH0061	120.799000	0.013000	0.000000	0.050000	0.000000	0.000000
20SM081	20SMH0061	20SMH0060	119.958000	0.013000	0.000000	0.030000	0.000000	0.000000
20SM081-B	20SMH0061	20SMH0060	119.958107	0.013000	0.000000	0.030000	0.000000	0.000000
20SM082	20SMH0060	20SMH0059	120.951000	0.013000	0.000000	0.050000	0.000000	0.000000
20SM083	20SMH0059	20SMH0058	56.098000	0.013000	0.000000	0.050000	0.000000	0.000000
20SM084	20SMH0180	20SMH0179	86.814000	0.013000	0.000000	0.100000	0.000000	0.000000
20SM085	20SMH0179	20SMH0178	87.164000	0.013000	0.000000	0.606000	0.000000	0.000000
20SM086	20SMH0178	MCKAY_WW	31.638503	0.013000	0.000000	0.000000	0.000000	0.000000
20SM087	20SMH0065	20SMH0064	120.396000	0.013000	0.000000	0.030000	0.000000	0.000000
20SM088	20SMH0064	20SMH0063	120.480000	0.013000	0.000000	0.130000	0.000000	0.000000
20SM089	20SMH0118	20SMH0117	94.642000	0.013000	0.000000	0.850000	0.000000	0.000000
20SM090	20SMH0117	20SMH0116	101.138000	0.013000	0.000000	0.100000	0.000000	0.000000
20SM091	20SMH0116	20SMH0064	101.287000	0.013000	0.000000	0.080000	0.000000	0.000000
20SM092	20SMH0119	20SMH0116	91.303000	0.013000	0.000000	0.100000	0.000000	0.000000
20SM093	20SMH0071	20SMH0061	51.531000	0.013000	0.000000	0.050000	0.000000	0.000000
20SM094	20SMH0070	20SMH0061	60.979000	0.013000	0.000000	0.050000	0.000000	0.000000
20SM095	20SMH0069	20SMH0059	55.120000	0.013000	0.000000	0.050000	0.000000	0.000000
20SM096	20SMH0131	20SMH0059	61.171000	0.013000	0.000000	0.200000	0.000000	0.000000
20SM097	20SMH0132	20SMH0060	42.677000	0.013000	0.000000	0.230000	0.000000	0.000000
20SM098	20SMH0125	20SMH0060	75.932000	0.013000	0.000000	0.030000	0.000000	0.000000
20SM100	20SMH0077	20SMH0076	94.004000	0.013000	0.000000	0.050000	0.000000	0.000000
20SM101	20SMH0079	20SMH0076	69.705000	0.013000	0.000000	0.050000	0.000000	0.000000
20SM102	20SMH0076	20SMH0075	58.594000	0.013000	0.000000	0.050000	0.000000	0.000000
20SM103	20SMH0075	20SMH0074	61.373000	0.013000	0.000000	0.050000	0.000000	0.000000
20SM104	20SMH0074	20SMH0073	64.216000	0.013000	0.000000	0.000000	0.000000	0.000000
20SM105	20SMH0073	20SMH0072	58.145000	0.013000	0.050000	0.050000	0.000000	0.000000
20SM106	20SMH0072	20SMH0057	94.529000	0.013000	0.000000	0.120000	0.000000	0.000000
20SM107	20SMH0058	20SMH0057	71.047000	0.013000	0.000000	0.100000	0.000000	0.000000
20SM108	20SMH0055	20SMH0006	111.819000	0.013000	0.000000	0.400000	0.000000	0.000000
20SM109	20SMH0078	20SMH0072	60.353000	0.013000	0.000000	0.050000	0.000000	0.000000
20SM110	20SMH0084	20SMH0083	70.095000	0.013000	0.000000	0.030000	0.000000	0.000000
20SM111	20SMH0083	20SMH0082	60.208000	0.013000	0.000000	0.050000	0.000000	0.000000
20SM112	20SMH0082	20SMH0081	60.766000	0.013000	0.000000	0.050000	0.000000	0.000000
20SM113	20SMH0081	20SMH0080	76.147000	0.013000	0.000000	0.050000	0.000000	0.000000
20SM114	20SMH0080	20SMH0055	77.576000	0.013000	0.000000	0.200000	0.000000	0.000000
20SM115	20SMH0087	20SMH0086	99.362000	0.013000	0.000000	0.050000	0.000000	0.000000
20SM116	20SMH0086	20SMH0085	59.299000	0.013000	0.000000	0.050000	0.000000	0.000000
20SM116-B	20SMH0086	20SMH0085	59.299013	0.013000	0.000000	0.050000	0.000000	0.000000
20SM117	20SMH0085	20SMH0005	60.003000	0.013000	0.000000	0.591000	0.000000	0.000000
20SM118	20SMH0099	20SMH0113	90.914000	0.013000	0.000000	0.030000	0.000000	0.000000
20SM119	20SMH0114	20SMH0113	45.065000	0.013000	0.000000	0.030000	0.000000	0.000000
20SM120	20SMH0113	20SMH0112	63.319000	0.013000	0.000000	0.050000	0.000000	0.000000
20SM121	20SMH0112	20SMH0111	57.958000	0.013000	0.000000	0.600000	0.000000	0.000000
20SM122	20SMH0148	20SMH0111	61.144000	0.013000	0.000000	0.100000	0.000000	0.000000
20SM123	20SMH0111	20SMH0110	100.673000	0.013000	0.000000	0.100000	0.000000	0.000000
20SM124	20SMH0153	20SMH0152	33.147000	0.013000	0.000000	0.000000	0.000000	0.000000
20SM125	20SMH0152	20SMH0151	21.602000	0.013000	0.000000	0.030000	0.000000	0.000000
20SM126	20SMH0151	20SMH0110	98.673000	0.013000	0.000000	0.100000	0.000000	0.000000
20SM127	20SMH0006	20SMH0005	98.312000	0.013000	0.000000	0.100000	0.000000	0.000000
20SM128	20SMH0005	20SMH0004	115.630000	0.013000	0.000000	0.100000	0.000000	0.000000
20SM129	20SMH0004	20SMH0003	34.527000	0.013000	0.000000	0.100000	0.000000	0.000000
20SM130	20SMH0003	20SMH0002	100.410000	0.013000	0.000000	0.100000	0.000000	0.000000
20SM131	20SMH0002	20SMH0001	100.777000	0.013000	0.000000	0.000000	0.000000	0.000000
20SM132	20SMH0091	20SMH0090	69.641000	0.013000	0.000000	0.050000	0.000000	0.000000
20SM133	20SMH0090	20SMH0089	73.150000	0.013000	0.000000	0.050000	0.000000	0.000000
20SM134	20SMH0089	20SMH0088	99.035000	0.013000	0.000000	0.050000	0.000000	0.000000
20SM135	20SMH0088	20SMH0003	50.999000	0.013000	0.000000	0.677000	0.000000	0.000000
20SM136	20SMH0057	20SMH0056	77.328000	0.013000	0.000000	0.000000	0.000000	0.000000
20SM137	20SMH0056	20SMH0055	78.389000	0.013000	0.000000	0.100000	0.000000	0.000000
20SM139	STAN1	20SMH0120	73.067040	0.013000	0.000000	0.650000	0.000000	0.000000
20SM140	20SMH0120	20SMH0109	60.068000	0.013000	0.000000	0.050000	0.000000	0.000000
20SM141	20SMH0109	20SMH0107	59.736000	0.013000	0.000000	0.050000	0.000000	0.000000
20SM142	20SMH0108	20SMH0107	102.409000	0.013000	0.000000	0.150000	0.000000	0.000000
20SM143	20SMH0107	20SMH0106	99.876000	0.013000	0.000000	0.050000	0.000000	0.000000
20SM144	20SMH0106	20SMH0104	100.168000	0.013000	0.000000	0.050000	0.000000	0.000000
20SM145	20SMH0105	20SMH0104	73.637000	0.013000	0.000000	0.050000	0.000000	0.000000
20SM146	20SMH0150	20SMH0149	72.948000	0.013000	0.000000	0.050000	0.000000	0.000000
20SM147	20SMH0149	20SMH0102	73.380000	0.013000	0.000000	0.050000	0.000000	0.000000
20SM148	20SMH0104	20SMH0103	61.077000	0.013000	0.000000	0.050000	0.000000	0.000000
20SM149	20SMH0103	20SMH0102	59.132000	0.013000	0.000000	0.050000	0.000000	0.000000
20SM150	20SMH0102	20SMH0101	61.984000	0.013000	0.000000	0.050000	0.000000	0.000000
20SM151	20SMH0101	20SMH0100	59.155000	0.013000	0.000000	0.100000	0.000000	0.000000
20SM152	20SMH0110	20SMH0100	101.635000	0.013000	0.000000	0.100000	0.000000	0.000000
20SM153	20SMH0100	20SMH0093	53.902000	0.013000	0.000000	0.400000	0.000000	0.000000
20SM154	20SMH0095	20SMH0094	85.675000	0.013000	0.000000	0.050000	0.000000	0.000000
20SM155	20SMH0094	20SMH0093	84.797000	0.013000	0.000000	0.100000	0.000000	0.000000
20SM156	20SMH0093	20SMH0092	117.159000	0.013000	0.000000	0.050000	0.000000	0.000000
20SM157	20SMH0092	20SMH0001	14.599000	0.013000	0.000000	0.092000	0.000000	0.000000
20SM158	20SMH0001	OUSE_PS	18.992000	0.013000	0.000000	0.000000	0.000000	0.000000
20SM159	STAN2	20SMH0162	31.710000	0.013000	0.000000	0.040000	0.000000	0.000000
20SM160	20SMH0162	20SMH0161	53.649000	0.013000	0.000000	0.100000	0.000000	0.000000
20SM161	20SMH0161	20SMH0160	65.987000	0.013000	0.000000	0.100000	0.000000	0.000000
20SM162	20SMH0160	20SMH0159	96.373000	0.013000	0.000000	0.100000	0.000000	0.000000
20SM163	20SMH0164	20SMH0165	83.669000	0.013000	0.000000	0.050000	0.000000	0.000000
20SM164	20SMH0165	20SMH0166	68.936000	0.013000	0.000000	0.050000	0.000000	0.000000
20SM165	20SMH0166	20SMH0167	13.516000	0.013000	0.000000	0.070000	0.000000	0.000000
20SM166	20SMH0167	20SMH0159	93.883000	0.013000	0.000000	0.150000	0.000000	0.000000
20SM167	20SMH0155	20SMH0154	29.723000	0.013000	0.000000	0.029000	0.000000	0.000000
20SM168	20SMH0154	20SMH0128	66.585000	0.013000	0.000000	0.050000	0.000000	0.000000
20SM169	20SMH0128	20SMH0127	120.162000	0.013000	0.000000	0.050000	0.000000	0.000000
20SM170	20SMH0127	20SMH0097	121.157000	0.013000	0.000000	0.050000	0.000000	0.000000
20SM171	20SMH0176	20SMH0175	96.650000	0.013000	0.000000	0.050000	0.000000	0.000000
20SM172	20SMH0175	20SMH0128	38.554000	0.013000	0.000000	0.100000	0.000000	0.000000
20SM173	20SMH0171	20SMH0170	49.460000	0.013000	0.000000	0.050000	0.000000	0.000000
20SM174	20SMH0170	20SMH0169	76.552000	0.013000	0.000000	0.050000	0.000000	0.000000
20SM175	20SMH0169	20SMH0127	80.276000	0.013000	0.000000	0.250000	0.000000	0.000000
20SM176	20SMH0098	20SMH0097	97.304000	0.013000	0.000000	0.030000	0.000000	0.000000
20SM177	20SMH0097	20SMH0096	79.884000	0.013000	0.000000	0.050000	0.000000	0.000000
20SM178	20SMH0096	20SMH0095	81.814000	0.013000	0.000000	0.120000	0.000000	0.000000
20SM179	20SMH0126	20SMH0095	96.453000	0.013000	0.000000	0.070000	0.000000	0.000000
20SM180	20SMH0159	20SMH0156	87.155000	0.013000	0.000000	0.050000	0.000000	0.000000
20SM181	20SMH0156	20SMH0155	32.413000	0.013000	0.000000	0.100000	0.000000	0.000000
20SM182	20SMH0157	20SMH0156	102.707000	0.013000	0.000000	0.050000	0.000000	0.000000
; New Pipe
CAYUGA_WWTP	WWTP	WWTP_OUTLET	5.000000	0.013000	0.000000	0.000000	0.000000	0.000000
DUMMY_OPP_2	DUMMY	20SMH0136	30.161000	0.013000	0.000000	0.000000	0.000000	0.000000
OPP_FM	DUMMY_OPP	DUMMY	450.525000	0.010000	0.000000	0.000000	0.000000	0.000000
; Duplicate ID to 20SM0008
STAN1	20SMH0136	20SMH0135	17.931000	0.013000	189.689000	0.100000	0.000000	0.000000
; New Pipe
STAN10	STAN10	STAN11	103.117000	0.013000	0.000000	0.000000	0.000000	0.000000
; New Pipe
STAN11	STAN11	STAN12	60.590000	0.013000	0.000000	0.050000	0.000000	0.000000
; New Pipe
STAN12	STAN12	STAN13	81.563000	0.013000	0.000000	0.050000	0.000000	0.000000
; New Pipe
STAN13	STAN13	STAN14	67.372000	0.013000	0.000000	0.100000	0.000000	0.000000
; New Pipe
STAN14	STAN14	20SMH0154	39.526000	0.013000	0.000000	0.020000	0.000000	0.000000
; New Pipe
STAN15	20SMH0193	20SMH0180	23.947000	0.013000	0.000000	0.000000	0.000000	0.000000
; New Pipe
STAN16	20SMH0185	20SMH0036	48.930000	0.013000	0.000000	0.011000	0.000000	0.000000
; New Pipe