[OPTIONS]
;Option and Files Scenario Set: 1DAY
FLOW_UNITS		LPS
INFILTRATION		HORTON
FLOW_ROUTING		DYNWAVE
LINK_OFFSETS		DEPTH
MIN_SLOPE		0.000000
ALLOW_PONDING		YES
SKIP_STEADY_STATE 	NO
IGNORE_RAINFALL		YES
IGNORE_SNOWMELT		YES
IGNORE_GROUNDWATER	YES
IGNORE_QUALITY		YES

START_DATE		01/05/2015
START_TIME		00:00
REPORT_START_DATE	01/05/2015
REPORT_START_TIME	00:00
END_DATE		01/06/2015
END_TIME		00:00
SWEEP_START		01/01
SWEEP_END		12/31
DRY_DAYS		5.000000
REPORT_STEP		00:05:00
WET_STEP		01:00:00
DRY_STEP		01:00:00
ROUTING_STEP		2

INERTIAL_DAMPING	NONE
NORMAL_FLOW_LIMITED	BOTH
FORCE_MAIN_EQUATION	H-W
VARIABLE_STEP		1.750000
LENGTHENING_STEP	10
MIN_SURFAREA		0.000000
MAX_TRIALS		8
HEAD_TOLERANCE	0.000100
MINIMUM_STEP		0.000000


[FILES]

[RAINGAGES]

[HYDROGRAPHS]

[TEMPERATURE]

[SUBCATCHMENTS]

[SUBAREAS]

[INFILTRATION]

[AQUIFERS]

[GROUNDWATER]

[GWF]

[SNOWPACKS]

[JUNCTIONS]
; Manhole
2689272	18.910000	2.760000	0.000000	0.000000	0.000000
; Manhole
2689273	13.560000	2.090000	0.000000	0.000000	0.000000
; Manhole
2689274	14.430000	2.020000	0.000000	0.000000	0.000000
; Manhole
2689275	8.860000	1.610000	0.000000	0.000000	0.000000
; Manhole
2689277	11.220000	1.620000	0.000000	0.000000	0.000000
; Manhole
2689278	7.040000	0.990000	0.000000	0.000000	0.000000
; Manhole
2689279	10.170000	2.050000	0.000000	0.000000	0.000000
; Manhole
2689280	17.520000	1.650000	0.000000	0.000000	0.000000
; Manhole
2689281	22.600000	1.590000	0.000000	0.000000	0.000000
; SPS-BGY006 Discharge Manhole
2689282	23.120000	1.290000	0.000000	0.000000	0.000000
; Manhole
2689283	21.480000	1.650000	0.000000	0.000000	0.000000
; Manhole
2689284	26.870000	1.630000	0.000000	0.000000	0.000000
; Manhole
2689285	26.190000	1.720000	0.000000	0.000000	0.000000
; Manhole
2689286	25.640000	1.070000	0.000000	0.000000	0.000000
; Manhole
2689287	29.920000	1.610000	0.000000	0.000000	0.000000
; Manhole
2689288	29.460000	1.700000	0.000000	0.000000	0.000000
; Manhole
2689289	25.860000	2.600000	0.000000	0.000000	0.000000
; Manhole
2689290	23.210000	1.600000	0.000000	0.000000	0.000000
; Manhole
2689291	31.920000	1.520000	0.000000	0.000000	0.000000
; Manhole
2689292	16.810000	2.020000	0.000000	0.000000	0.000000
; Manhole
2689293	15.790000	1.850000	0.000000	0.000000	0.000000
; Manhole
2689294	14.450000	2.830000	0.000000	0.000000	0.000000
; Manhole
2689295	14.440000	3.800000	0.000000	0.000000	0.000000
; Manhole
2689296	20.810000	1.770000	0.000000	0.000000	0.000000
; Manhole
2689297	21.070000	1.650000	0.000000	0.000000	0.000000
; Manhole
2689298	32.370000	1.450000	0.000000	0.000000	0.000000
; Manhole
2689299	-0.870000	3.140000	0.000000	0.000000	0.000000
; Manhole
2689301	7.290000	3.260000	0.000000	0.000000	0.000000
; Manhole
2689302	9.130000	2.590000	0.000000	0.000000	0.000000
; Manhole
2689303	-1.930000	5.340000	0.000000	0.000000	0.000000
; Manhole
2689307	12.170000	1.650000	0.000000	0.000000	0.000000
; Manhole
2689308	44.390000	1.050000	0.000000	0.000000	0.000000
; Manhole
2689309	0.050000	3.020000	0.000000	0.000000	0.000000
; Manhole
2689310	0.220000	2.650000	0.000000	0.000000	0.000000
; Manhole
2689311	12.050000	1.550000	0.000000	0.000000	0.000000
; Manhole
2689317	1.690000	1.700000	0.000000	0.000000	0.000000
; Manhole
2689327	1.420000	1.100000	0.000000	0.000000	0.000000
; Manhole
2689328	1.900000	2.340000	0.000000	0.000000	0.000000
; Manhole
2689329	-0.250000	1.860000	0.000000	0.000000	0.000000
; Manhole
2689330	-0.270000	3.480000	0.000000	0.000000	0.000000
; Manhole
2689331	-0.910000	4.200000	0.000000	0.000000	0.000000
; Manhole
2689332	0.430000	3.600000	0.000000	0.000000	0.000000
; Manhole
2689333	0.650000	1.540000	0.000000	0.000000	0.000000
; Manhole
2689340	29.260000	2.830000	0.000000	0.000000	0.000000
; Manhole
2689341	20.280000	1.950000	0.000000	0.000000	0.000000
; Manhole
2689350	9.310000	1.750000	0.000000	0.000000	0.000000
; Manhole
2689351	8.230000	1.560000	0.000000	0.000000	0.000000
; Manhole
2689353	52.500000	3.300000	0.000000	0.000000	0.000000
; Manhole
2689357	8.380000	3.210000	0.000000	0.000000	0.000000
; Manhole
2689358	7.550000	2.300000	0.000000	0.000000	0.000000
; Manhole
2689359	9.250000	1.810000	0.000000	0.000000	0.000000
; Manhole
2689360	15.240000	2.180000	0.000000	0.000000	0.000000
; Manhole
2689361	12.990000	3.490000	0.000000	0.000000	0.000000
; Manhole
2689378	12.020000	1.550000	0.000000	0.000000	0.000000
; Manhole
2689379	10.980000	1.340000	0.000000	0.000000	0.000000
; Manhole
2689381	13.060000	1.550000	0.000000	0.000000	0.000000
; Manhole
2689382	13.390000	3.130000	0.000000	0.000000	0.000000
; Manhole
2689383	5.450000	1.180000	0.000000	0.000000	0.000000
; Manhole
2689384	7.120000	1.760000	0.000000	0.000000	0.000000
; Manhole
2689385	4.400000	1.520000	0.000000	0.000000	0.000000
; Manhole
2689386	7.360000	3.000000	0.000000	0.000000	0.000000
; Manhole
2689387	5.550000	1.020000	0.000000	0.000000	0.000000
; Manhole
2689388	5.210000	2.020000	0.000000	0.000000	0.000000
; Manhole
2689389	6.900000	1.160000	0.000000	0.000000	0.000000
; Manhole
2689390	8.030000	1.300000	0.000000	0.000000	0.000000
; Manhole
2689391	3.760000	2.750000	0.000000	0.000000	0.000000
; Manhole
2689392	7.550000	1.730000	0.000000	0.000000	0.000000
; Manhole
2689393	2.260000	1.470000	0.000000	0.000000	0.000000
; Manhole
2689394	2.020000	1.490000	0.000000	0.000000	0.000000
; Manhole
2689396	5.290000	1.450000	0.000000	0.000000	0.000000
; Manhole
2689397	8.220000	2.320000	0.000000	0.000000	0.000000
; Manhole
2689398	10.330000	1.520000	0.000000	0.000000	0.000000
; Manhole
2689399	18.120000	1.690000	0.000000	0.000000	0.000000
; Manhole
2689400	13.010000	2.610000	0.000000	0.000000	0.000000
; Manhole
2689403	2.180000	3.240000	0.000000	0.000000	0.000000
; Manhole
2689404	3.710000	1.740000	0.000000	0.000000	0.000000
; Manhole
2689405	1.760000	1.620000	0.000000	0.000000	0.000000
; Manhole
2689406	9.500000	2.460000	0.000000	0.000000	0.000000
; Manhole
2689407	14.960000	1.570000	0.000000	0.000000	0.000000
; Manhole
2689409	19.350000	2.870000	0.000000	0.000000	0.000000
; Manhole
2689414	6.070000	2.570000	0.000000	0.000000	0.000000
; Manhole
2689415	14.380000	1.510000	0.000000	0.000000	0.000000
; Manhole
2689427	16.830000	1.090000	0.000000	0.000000	0.000000
; Manhole
2689428	15.980000	2.220000	0.000000	0.000000	0.000000
; Manhole
2689429	14.260000	1.140000	0.000000	0.000000	0.000000
; Manhole
2689430	16.530000	1.480000	0.000000	0.000000	0.000000
; Manhole
2689431	7.880000	1.690000	0.000000	0.000000	0.000000
; Manhole
2689432	2.290000	3.290000	0.000000	0.000000	0.000000
; Manhole
2689433	7.090000	2.480000	0.000000	0.000000	0.000000
; Manhole
2689434	2.220000	2.760000	0.000000	0.000000	0.000000
; Manhole
2689435	3.750000	2.360000	0.000000	0.000000	0.000000
; Manhole
2689436	7.190000	2.000000	0.000000	0.000000	0.000000
; Manhole
2689437	4.440000	1.390000	0.000000	0.000000	0.000000
; Manhole
2689438	8.080000	1.980000	0.000000	0.000000	0.000000
; Manhole
2689439	5.370000	1.660000	0.000000	0.000000	0.000000
; Manhole
2689440	20.560000	2.020000	0.000000	0.000000	0.000000
; Manhole
2689441	21.690000	2.290000	0.000000	0.000000	0.000000
; Manhole
2689442	21.830000	1.580000	0.000000	0.000000	0.000000
; Manhole
2689451	4.130000	2.130000	0.000000	0.000000	0.000000
; Manhole
2689452	4.370000	1.150000	0.000000	0.000000	0.000000
; Manhole
2689453	3.400000	3.100000	0.000000	0.000000	0.000000
; Manhole
2689454	8.370000	2.870000	0.000000	0.000000	0.000000
; Manhole
2689455	3.370000	1.380000	0.000000	0.000000	0.000000
; Manhole
2689456	14.880000	1.940000	0.000000	0.000000	0.000000
; Manhole
2689457	10.900000	2.290000	0.000000	0.000000	0.000000
; Manhole
2689470	32.120000	1.480000	0.000000	0.000000	0.000000
; Manhole
2689471	30.680000	2.050000	0.000000	0.000000	0.000000
; Manhole
2689472	28.390000	2.830000	0.000000	0.000000	0.000000
; Manhole
2689473	29.020000	3.040000	0.000000	0.000000	0.000000
; Manhole
2689474	31.190000	1.830000	0.000000	0.000000	0.000000
; Manhole
2689509	36.800000	1.160000	0.000000	0.000000	0.000000
; Manhole
2689510	29.380000	2.120000	0.000000	0.000000	0.000000
; Manhole
2689526	-0.500000	2.200000	0.000000	0.000000	0.000000
; Manhole
2689527	15.840000	1.800000	0.000000	0.000000	0.000000
; Manhole
2689534	11.880000	0.640000	0.000000	0.000000	0.000000
; Manhole
2689535	22.570000	2.690000	0.000000	0.000000	0.000000
; Manhole
2689536	22.750000	2.640000	0.000000	0.000000	0.000000
; Manhole
2689537	22.310000	2.150000	0.000000	0.000000	0.000000
; Manhole
2689538	23.390000	1.820000	0.000000	0.000000	0.000000
; Manhole
2689539	23.930000	1.430000	0.000000	0.000000	0.000000
; Manhole
2689540	22.630000	3.120000	0.000000	0.000000	0.000000
; Manhole
2689541	22.730000	3.330000	0.000000	0.000000	0.000000
; Manhole
2689542	23.600000	2.180000	0.000000	0.000000	0.000000
; Manhole
2689543	23.690000	2.540000	0.000000	0.000000	0.000000
; Manhole
2689544	23.410000	2.400000	0.000000	0.000000	0.000000
; Manhole
2689545	22.940000	3.420000	0.000000	0.000000	0.000000
; Manhole
2689546	22.320000	2.340000	0.000000	0.000000	0.000000
; Manhole
2689547	21.790000	2.140000	0.000000	0.000000	0.000000
; Manhole
2689549	21.590000	1.720000	0.000000	0.000000	0.000000
; Manhole
2689570	28.660000	2.600000	0.000000	0.000000	0.000000
; Manhole
2689577	7.660000	3.040000	0.000000	0.000000	0.000000
; Manhole
2689578	6.660000	2.900000	0.000000	0.000000	0.000000
; Manhole
2689579	5.320000	3.950000	0.000000	0.000000	0.000000
; Manhole
2689580	22.700000	1.230000	0.000000	0.000000	0.000000
; Manhole
2689583	0.250000	1.390000	0.000000	0.000000	0.000000
; Manhole
2689584	1.520000	1.170000	0.000000	0.000000	0.000000
; Manhole
2689585	-0.080000	3.860000	0.000000	0.000000	0.000000
; Manhole
2689586	-0.600000	3.030000	0.000000	0.000000	0.000000
; Manhole
2689587	1.910000	1.590000	0.000000	0.000000	0.000000
; Manhole
2689588	2.230000	1.940000	0.000000	0.000000	0.000000
; Manhole
2689590	7.790000	1.720000	0.000000	0.000000	0.000000
; Manhole
2689591	5.840000	3.360000	0.000000	0.000000	0.000000
; Manhole
2689592	14.220000	2.030000	0.000000	0.000000	0.000000
; Manhole
2689594	13.060000	1.720000	0.000000	0.000000	0.000000
; Manhole
2689595	46.920000	1.620000	0.000000	0.000000	0.000000
; Manhole
2689596	60.340000	1.270000	0.000000	0.000000	0.000000
; Manhole
2689599	19.810000	3.820000	0.000000	0.000000	0.000000
; Manhole
2689600	22.530000	2.200000	0.000000	0.000000	0.000000
; Manhole
2689601	18.360000	2.040000	0.000000	0.000000	0.000000
; Manhole
2689602	18.810000	2.830000	0.000000	0.000000	0.000000
; Manhole
2689603	16.910000	2.580000	0.000000	0.000000	0.000000
; Manhole
2689604	17.410000	2.590000	0.000000	0.000000	0.000000
; Manhole
2689605	17.830000	2.310000	0.000000	0.000000	0.000000
; Manhole
2689606	28.390000	1.500000	0.000000	0.000000	0.000000
; Manhole
2689607	0.430000	3.200000	0.000000	0.000000	0.000000
; Manhole
2689610	53.990000	1.690000	0.000000	0.000000	0.000000
; Manhole
2689611	38.090000	2.330000	0.000000	0.000000	0.000000
; Manhole
2689612	38.940000	2.550000	0.000000	0.000000	0.000000
; Manhole
2689613	40.400000	2.800000	0.000000	0.000000	0.000000
; Manhole
2689614	39.700000	2.200000	0.000000	0.000000	0.000000
; Manhole
2689615	50.330000	1.140000	0.000000	0.000000	0.000000
; Manhole
2689616	5.750000	1.610000	0.000000	0.000000	0.000000
; Manhole
2689631	32.880000	1.520000	0.000000	0.000000	0.000000
; Manhole
2689648	13.140000	1.870000	0.000000	0.000000	0.000000
; Manhole
2689649	10.220000	2.610000	0.000000	0.000000	0.000000
; Manhole
2689651	51.960000	1.650000	0.000000	0.000000	0.000000
; Manhole
2689652	42.410000	1.010000	0.000000	0.000000	0.000000
; Manhole
2689653	44.140000	1.330000	0.000000	0.000000	0.000000
; Manhole
2689654	56.440000	1.680000	0.000000	0.000000	0.000000
; Manhole
2689655	50.130000	1.510000	0.000000	0.000000	0.000000
; Manhole
2689656	36.350000	1.750000	0.000000	0.000000	0.000000
; Manhole
2689657	30.800000	3.110000	0.000000	0.000000	0.000000
; Manhole
2689658	39.050000	2.100000	0.000000	0.000000	0.000000
; Manhole
2689659	40.600000	2.440000	0.000000	0.000000	0.000000
; Manhole
2689665	0.300000	2.950000	0.000000	0.000000	0.000000
; Manhole
2689666	3.080000	2.110000	0.000000	0.000000	0.000000
; Manhole
2689667	3.710000	2.140000	0.000000	0.000000	0.000000
; Manhole
2689668	6.460000	1.360000	0.000000	0.000000	0.000000
; Manhole
2689669	6.490000	1.100000	0.000000	0.000000	0.000000
; Manhole
2689670	5.800000	1.210000	0.000000	0.000000	0.000000
; Manhole
2689671	2.310000	1.370000	0.000000	0.000000	0.000000
; Manhole
2689672	1.040000	1.690000	0.000000	0.000000	0.000000
; Manhole
2689673	5.790000	1.880000	0.000000	0.000000	0.000000
; Manhole
2689674	7.380000	1.470000	0.000000	0.000000	0.000000
; Manhole
2689675	9.300000	0.810000	0.000000	0.000000	0.000000
; Manhole
2689677	16.720000	2.510000	0.000000	0.000000	0.000000
; Manhole
2689678	19.610000	2.130000	0.000000	0.000000	0.000000
; Manhole
2689679	15.480000	1.760000	0.000000	0.000000	0.000000
; Manhole
2689680	8.820000	4.060000	0.000000	0.000000	0.000000
; Manhole
2689681	16.320000	2.080000	0.000000	0.000000	0.000000
; Manhole
2689682	6.400000	2.750000	0.000000	0.000000	0.000000
; Manhole
2689689	37.890000	3.190000	0.000000	0.000000	0.000000
; Manhole
2689702	29.270000	2.280000	0.000000	0.000000	0.000000
; Manhole
2689703	31.050000	4.060000	0.000000	0.000000	0.000000
; Manhole
2689704	27.610000	2.300000	0.000000	0.000000	0.000000
; Manhole
2689705	28.190000	1.730000	0.000000	0.000000	0.000000
; Manhole
2689706	24.170000	1.450000	0.000000	0.000000	0.000000
; Manhole
2689707	21.950000	2.740000	0.000000	0.000000	0.000000
; Manhole
2689727	20.460000	3.050000	0.000000	0.000000	0.000000
; Manhole
2689728	19.420000	2.020000	0.000000	0.000000	0.000000
; Manhole
2689729	20.420000	1.650000	0.000000	0.000000	0.000000
; Manhole
2689732	11.520000	1.440000	0.000000	0.000000	0.000000
; Manhole
2689733	9.210000	2.100000	0.000000	0.000000	0.000000
; Manhole
2689746	6.100000	2.230000	0.000000	0.000000	0.000000
; Manhole
2689747	5.130000	1.820000	0.000000	0.000000	0.000000
; Manhole
2689748	3.880000	2.800000	0.000000	0.000000	0.000000
; Manhole
2689759	14.200000	1.780000	0.000000	0.000000	0.000000
; Manhole
2689773	28.000000	1.330000	0.000000	0.000000	0.000000
; Manhole
2689774	26.380000	1.650000	0.000000	0.000000	0.000000
; Manhole
2689795	8.880000	1.030000	0.000000	0.000000	0.000000
; Manhole
2689797	44.620000	1.480000	0.000000	0.000000	0.000000
; Manhole
2689798	31.730000	1.270000	0.000000	0.000000	0.000000
; Manhole
2689799	36.650000	1.260000	0.000000	0.000000	0.000000
; Manhole
2689800	9.840000	1.400000	0.000000	0.000000	0.000000
; Manhole
2689801	5.050000	3.250000	0.000000	0.000000	0.000000
; Manhole
2689803	2.150000	0.980000	0.000000	0.000000	0.000000
; Manhole
2689804	2.750000	2.960000	0.000000	0.000000	0.000000
; Manhole
2689807	21.320000	2.360000	0.000000	0.000000	0.000000
; Manhole
2689829	36.400000	2.980000	0.000000	0.000000	0.000000
; Manhole
2689830	35.230000	1.540000	0.000000	0.000000	0.000000
; Manhole
2689831	33.130000	1.750000	0.000000	0.000000	0.000000
; Manhole
2689832	25.600000	1.470000	0.000000	0.000000	0.000000
; Manhole
2689836	1.940000	0.770000	0.000000	0.000000	0.000000
; Manhole
2689837	4.230000	4.180000	0.000000	0.000000	0.000000
; Manhole
2689838	7.190000	3.020000	0.000000	0.000000	0.000000
; Manhole
2689839	0.490000	3.560000	0.000000	0.000000	0.000000
; Manhole
2689841	14.940000	1.290000	0.000000	0.000000	0.000000
; Manhole
2689842	15.390000	1.830000	0.000000	0.000000	0.000000
; Manhole
2689843	18.970000	1.770000	0.000000	0.000000	0.000000
; Manhole
2689845	15.430000	3.180000	0.000000	0.000000	0.000000
; Manhole
2689846	13.610000	2.530000	0.000000	0.000000	0.000000
; Manhole
2689847	19.400000	1.290000	0.000000	0.000000	0.000000
; Manhole
2689848	15.610000	2.350000	0.000000	0.000000	0.000000
; Manhole
2689849	18.320000	1.720000	0.000000	0.000000	0.000000
; Manhole
2689850	18.740000	2.060000	0.000000	0.000000	0.000000
; Manhole
2689851	14.940000	2.080000	0.000000	0.000000	0.000000
; Manhole
2689853	12.860000	1.650000	0.000000	0.000000	0.000000
; Manhole
2689854	15.630000	2.450000	0.000000	0.000000	0.000000
; Manhole
2689856	12.170000	1.980000	0.000000	0.000000	0.000000
; Manhole
2689857	15.280000	1.720000	0.000000	0.000000	0.000000
; Manhole
2689858	5.800000	1.550000	0.000000	0.000000	0.000000
; Manhole
2689859	5.180000	1.680000	0.000000	0.000000	0.000000
; Manhole
2689860	2.690000	2.810000	0.000000	0.000000	0.000000
; Manhole
2689864	16.860000	2.910000	0.000000	0.000000	0.000000
; Manhole
2689865	19.770000	1.770000	0.000000	0.000000	0.000000
; Manhole
2689866	11.740000	2.430000	0.000000	0.000000	0.000000
; Manhole
2689867	10.470000	2.660000	0.000000	0.000000	0.000000
; Manhole
2689868	17.690000	1.370000	0.000000	0.000000	0.000000
; Manhole
2689869	16.520000	2.190000	0.000000	0.000000	0.000000
; Manhole
2689870	14.950000	2.410000	0.000000	0.000000	0.000000
; Manhole
2689881	14.000000	2.970000	0.000000	0.000000	0.000000
; Manhole
2689882	10.360000	2.810000	0.000000	0.000000	0.000000
; Manhole
2689883	13.020000	1.760000	0.000000	0.000000	0.000000
; Manhole
2689888	9.950000	1.530000	0.000000	0.000000	0.000000
; Manhole
2689889	6.100000	1.370000	0.000000	0.000000	0.000000
; Manhole
2689890	9.220000	1.270000	0.000000	0.000000	0.000000
; Manhole
2689891	6.280000	2.000000	0.000000	0.000000	0.000000
; Manhole
2689893	10.530000	1.460000	0.000000	0.000000	0.000000
; Manhole
2689910	23.070000	2.120000	0.000000	0.000000	0.000000
; Manhole
2689911	30.100000	1.550000	0.000000	0.000000	0.000000
; Manhole
2689912	3.970000	1.530000	0.000000	0.000000	0.000000
; Manhole
2689918	35.670000	1.850000	0.000000	0.000000	0.000000
; Manhole
2689923	21.970000	1.530000	0.000000	0.000000	0.000000
; Manhole
2689924	30.400000	2.730000	0.000000	0.000000	0.000000
; Manhole
2689925	10.860000	1.650000	0.000000	0.000000	0.000000
; Manhole
2689930	17.430000	2.240000	0.000000	0.000000	0.000000
; Manhole
2689931	17.340000	2.360000	0.000000	0.000000	0.000000
; Manhole
2689932	17.670000	2.220000	0.000000	0.000000	0.000000
; Manhole
2689936	12.990000	2.560000	0.000000	0.000000	0.000000
; Manhole
2689938	14.930000	1.960000	0.000000	0.000000	0.000000
; Manhole
2689941	53.020000	1.740000	0.000000	0.000000	0.000000
; Manhole
2689942	43.950000	1.710000	0.000000	0.000000	0.000000
; Manhole
2689960	0.740000	1.730000	0.000000	0.000000	0.000000
; Manhole
2689961	-0.250000	3.110000	0.000000	0.000000	0.000000
; Manhole
2689963	38.260000	2.950000	0.000000	0.000000	0.000000
; Manhole
2689964	14.290000	2.140000	0.000000	0.000000	0.000000
; Manhole
2689991	8.980000	1.490000	0.000000	0.000000	0.000000
; Manhole
2689992	5.300000	2.050000	0.000000	0.000000	0.000000
; Manhole
2690006	12.600000	1.650000	0.000000	0.000000	0.000000
; Manhole
2690007	16.520000	2.100000	0.000000	0.000000	0.000000
; Manhole
2690008	14.960000	1.470000	0.000000	0.000000	0.000000
; Manhole
2690009	13.350000	1.240000	0.000000	0.000000	0.000000
; Manhole
2690010	20.880000	1.580000	0.000000	0.000000	0.000000
; Manhole
2690018	25.300000	2.290000	0.000000	0.000000	0.000000
; Manhole
2690020	28.790000	2.570000	0.000000	0.000000	0.000000
; Manhole
2690026	14.470000	2.380000	0.000000	0.000000	0.000000
; Manhole
2690028	2.630000	3.190000	0.000000	0.000000	0.000000
; Manhole
2690035	5.230000	1.090000	0.000000	0.000000	0.000000
; Manhole
2690036	2.810000	1.490000	0.000000	0.000000	0.000000
; Manhole
2690037	7.040000	1.190000	0.000000	0.000000	0.000000
; Manhole
2690038	33.320000	1.320000	0.000000	0.000000	0.000000
; Manhole
2690040	5.050000	1.300000	0.000000	0.000000	0.000000
; Manhole
2690041	2.180000	2.480000	0.000000	0.000000	0.000000
; Manhole
2690042	3.570000	2.100000	0.000000	0.000000	0.000000
; Manhole
2690043	2.670000	2.610000	0.000000	0.000000	0.000000
; Manhole
2690044	6.550000	1.700000	0.000000	0.000000	0.000000
; Manhole
2690045	7.180000	1.140000	0.000000	0.000000	0.000000
; Manhole
2690046	0.620000	2.080000	0.000000	0.000000	0.000000
; Manhole
2690047	3.390000	2.360000	0.000000	0.000000	0.000000
; Manhole
2690048	4.440000	2.210000	0.000000	0.000000	0.000000
; Manhole
2690049	0.210000	2.530000	0.000000	0.000000	0.000000
; m Manhole
2690050	-0.510000	3.730000	0.000000	0.000000	0.000000
; Manhole
2690051	2.510000	1.280000	0.000000	0.000000	0.000000
; Manhole
2690052	18.500000	0.670000	0.000000	0.000000	0.000000
; Manhole
2690053	21.970000	2.410000	0.000000	0.000000	0.000000
; Manhole
2690054	16.500000	2.270000	0.000000	0.000000	0.000000
; Manhole
2690057	16.540000	1.600000	0.000000	0.000000	0.000000
; Manhole
2690060	6.920000	3.790000	0.000000	0.000000	0.000000
; Manhole
2690068	13.580000	1.280000	0.000000	0.000000	0.000000
; Manhole
2690069	5.900000	3.490000	0.000000	0.000000	0.000000
; Manhole
2690070	9.030000	2.650000	0.000000	0.000000	0.000000
; Manhole
2690071	9.740000	2.050000	0.000000	0.000000	0.000000
; Manhole
2690072	9.060000	2.870000	0.000000	0.000000	0.000000
; Manhole
2690073	10.310000	1.590000	0.000000	0.000000	0.000000
; m Manhole
2690075	7.350000	1.350000	0.000000	0.000000	0.000000
; Manhole
2690077	8.220000	1.330000	0.000000	0.000000	0.000000
; Manhole
2690078	4.850000	1.430000	0.000000	0.000000	0.000000
; Manhole
2690080	0.440000	1.880000	0.000000	0.000000	0.000000
; Manhole
2690083	2.010000	3.180000	0.000000	0.000000	0.000000
; Manhole
2690084	7.720000	1.720000	0.000000	0.000000	0.000000
; Manhole
2690085	3.070000	2.500000	0.000000	0.000000	0.000000
; Manhole
2690086	1.930000	3.880000	0.000000	0.000000	0.000000
; Manhole
2690087	10.630000	1.690000	0.000000	0.000000	0.000000
; Manhole
2690088	9.430000	1.900000	0.000000	0.000000	0.000000
; Manhole
2690089	6.630000	1.230000	0.000000	0.000000	0.000000
; Manhole
2690090	3.070000	2.290000	0.000000	0.000000	0.000000
; Manhole
2690091	3.600000	1.430000	0.000000	0.000000	0.000000
; Manhole
2690092	4.650000	1.860000	0.000000	0.000000	0.000000
; Manhole
2690093	8.610000	1.020000	0.000000	0.000000	0.000000
; Manhole
2690094	8.200000	1.020000	0.000000	0.000000	0.000000
; Manhole
2690095	5.590000	1.120000	0.000000	0.000000	0.000000
; Manhole
2690096	9.720000	1.500000	0.000000	0.000000	0.000000
; Manhole
2690097	8.620000	2.250000	0.000000	0.000000	0.000000
; Manhole
2690098	8.440000	2.030000	0.000000	0.000000	0.000000
; Manhole
2690099	11.540000	1.700000	0.000000	0.000000	0.000000
; Manhole
2690100	55.870000	1.540000	0.000000	0.000000	0.000000
; Manhole
2690101	45.220000	2.790000	0.000000	0.000000	0.000000
; Manhole
2690109	52.300000	2.820000	0.000000	0.000000	0.000000
; Manhole
2690115	1.240000	1.510000	0.000000	0.000000	0.000000
; Manhole
2690116	30.140000	1.240000	0.000000	0.000000	0.000000
; Manhole
2690117	24.180000	3.240000	0.000000	0.000000	0.000000
; Manhole
2690118	35.480000	1.210000	0.000000	0.000000	0.000000
; Manhole
2690120	8.630000	3.040000	0.000000	0.000000	0.000000
; Manhole
2690121	18.990000	2.550000	0.000000	0.000000	0.000000
; Manhole
2690122	20.270000	1.670000	0.000000	0.000000	0.000000
; Manhole
2690123	22.130000	1.340000	0.000000	0.000000	0.000000
; Manhole
2690138	15.840000	1.670000	0.000000	0.000000	0.000000
; Manhole
2690139	7.960000	1.880000	0.000000	0.000000	0.000000
; Manhole
2690140	7.350000	2.060000	0.000000	0.000000	0.000000
; Manhole
2690141	4.410000	1.380000	0.000000	0.000000	0.000000
; Manhole
2690142	20.110000	3.700000	0.000000	0.000000	0.000000
; Manhole
2690144	19.420000	2.370000	0.000000	0.000000	0.000000
; Manhole
2690146	16.370000	3.120000	0.000000	0.000000	0.000000
; Manhole
2690147	17.820000	2.140000	0.000000	0.000000	0.000000
; Manhole
2690148	17.230000	2.430000	0.000000	0.000000	0.000000
; Manhole
2690149	15.620000	2.270000	0.000000	0.000000	0.000000
; Manhole
2690150	16.910000	2.430000	0.000000	0.000000	0.000000
; Manhole
2690151	17.340000	2.060000	0.000000	0.000000	0.000000
; Manhole
2690152	18.910000	1.420000	0.000000	0.000000	0.000000
; Manhole
2690153	17.880000	1.920000	0.000000	0.000000	0.000000
; Manhole
2690154	26.370000	1.090000	0.000000	0.000000	0.000000
; Manhole
2690155	33.940000	1.010000	0.000000	0.000000	0.000000
; Manhole
2690156	5.320000	1.370000	0.000000	0.000000	0.000000
; Manhole
2690157	6.500000	1.160000	0.000000	0.000000	0.000000
; Manhole
2690158	1.120000	1.100000	0.000000	0.000000	0.000000
; Manhole
2690160	10.010000	2.760000	0.000000	0.000000	0.000000
; Manhole
2690161	11.750000	1.170000	0.000000	0.000000	0.000000
; Manhole
2690162	12.480000	1.420000	0.000000	0.000000	0.000000
; Manhole
2690163	4.120000	1.530000	0.000000	0.000000	0.000000
; Manhole
2690164	5.890000	0.950000	0.000000	0.000000	0.000000
; Manhole
2690165	6.900000	1.210000	0.000000	0.000000	0.000000
; Manhole
2690166	5.330000	2.010000	0.000000	0.000000	0.000000
; Manhole
2690168	4.920000	1.440000	0.000000	0.000000	0.000000
; Manhole
2690169	6.680000	1.330000	0.000000	0.000000	0.000000
; Manhole
2690170	0.090000	2.150000	0.000000	0.000000	0.000000
; Manhole
2690201	17.250000	2.000000	0.000000	0.000000	0.000000
; Manhole
2690202	17.560000	1.710000	0.000000	0.000000	0.000000
; Manhole
2690203	6.380000	3.770000	0.000000	0.000000	0.000000
; Manhole
2690204	10.500000	1.500000	0.000000	0.000000	0.000000
; Manhole
2690210	35.300000	1.300000	0.000000	0.000000	0.000000
; Manhole
2690215	18.150000	1.410000	0.000000	0.000000	0.000000
; Manhole
2690216	20.790000	2.310000	0.000000	0.000000	0.000000
; Manhole
2690217	14.740000	1.880000	0.000000	0.000000	0.000000
; Manhole
2690240	37.240000	1.150000	0.000000	0.000000	0.000000
; Manhole
2690241	28.340000	1.070000	0.000000	0.000000	0.000000
; Manhole
2690242	25.900000	2.430000	0.000000	0.000000	0.000000
; Manhole
2690243	15.380000	2.440000	0.000000	0.000000	0.000000
; Manhole
2690244	33.810000	1.120000	0.000000	0.000000	0.000000
; Manhole
2690247	2.830000	1.810000	0.000000	0.000000	0.000000
; Manhole
2690248	1.800000	2.350000	0.000000	0.000000	0.000000
; Manhole
2690259	4.680000	2.380000	0.000000	0.000000	0.000000
; Manhole
2690260	5.270000	2.700000	0.000000	0.000000	0.000000
; Manhole
2690261	5.610000	1.870000	0.000000	0.000000	0.000000
; Manhole
2690262	9.240000	1.860000	0.000000	0.000000	0.000000
; Manhole
2690263	5.710000	2.030000	0.000000	0.000000	0.000000
; Manhole
2690264	5.180000	1.200000	0.000000	0.000000	0.000000
; Manhole
2690265	3.110000	3.290000	0.000000	0.000000	0.000000
; Manhole
2690266	6.070000	1.130000	0.000000	0.000000	0.000000
; Manhole
2690269	-0.370000	2.300000	0.000000	0.000000	0.000000
; Manhole
2690270	8.080000	1.220000	0.000000	0.000000	0.000000
; Manhole
2690272	9.480000	1.510000	0.000000	0.000000	0.000000
; Manhole
2690273	10.460000	1.330000	0.000000	0.000000	0.000000
; Manhole
2690274	10.590000	1.440000	0.000000	0.000000	0.000000
; Manhole
2690275	60.010000	1.650000	0.000000	0.000000	0.000000
; Manhole
2690283	16.400000	1.210000	0.000000	0.000000	0.000000
; Manhole
2690284	9.600000	1.290000	0.000000	0.000000	0.000000
; Manhole
2690285	6.490000	1.610000	0.000000	0.000000	0.000000
; Manhole
2690286	5.360000	1.340000	0.000000	0.000000	0.000000
; Manhole
2690287	5.300000	1.320000	0.000000	0.000000	0.000000
; Manhole
2690288	10.480000	1.030000	0.000000	0.000000	0.000000
; Manhole
2690317	13.600000	1.460000	0.000000	0.000000	0.000000
; Manhole
2690318	12.760000	2.290000	0.000000	0.000000	0.000000
; Manhole
2690319	11.850000	2.020000	0.000000	0.000000	0.000000
; Manhole
2690320	12.400000	1.080000	0.000000	0.000000	0.000000
; Manhole
2690321	12.460000	2.670000	0.000000	0.000000	0.000000
; Manhole
2690322	3.480000	5.560000	0.000000	0.000000	0.000000
; Manhole
2690333	36.930000	0.700000	0.000000	0.000000	0.000000
; Manhole
2690334	30.600000	3.030000	0.000000	0.000000	0.000000
; Manhole
2690340	1.120000	1.690000	0.000000	0.000000	0.000000
; Manhole
2690359	1.200000	4.030000	0.000000	0.000000	0.000000
; Manhole
2690360	4.110000	1.150000	0.000000	0.000000	0.000000
; Manhole
2690386	51.370000	2.210000	0.000000	0.000000	0.000000
; Manhole
2690387	45.450000	1.520000	0.000000	0.000000	0.000000
; Manhole
2690388	34.580000	1.520000	0.000000	0.000000	0.000000
; Manhole
2690389	42.770000	1.410000	0.000000	0.000000	0.000000
; Manhole
2690390	6.410000	1.590000	0.000000	0.000000	0.000000
; Manhole
2690391	5.570000	2.120000	0.000000	0.000000	0.000000
; Manhole
2690392	11.590000	2.580000	0.000000	0.000000	0.000000
; Manhole
2690393	2.230000	1.180000	0.000000	0.000000	0.000000
; Manhole
2690395	7.000000	2.850000	0.000000	0.000000	0.000000
; Manhole
2690397	15.750000	2.570000	0.000000	0.000000	0.000000
; Manhole
2690398	18.480000	1.650000	0.000000	0.000000	0.000000
; Manhole
2690399	14.520000	1.520000	0.000000	0.000000	0.000000
; Manhole
2690400	2.250000	3.890000	0.000000	0.000000	0.000000
; Manhole
2690401	5.390000	1.110000	0.000000	0.000000	0.000000
; Manhole
2690402	6.080000	1.200000	0.000000	0.000000	0.000000
; Manhole
2690403	17.380000	2.710000	0.000000	0.000000	0.000000
; Manhole
2690404	16.650000	2.650000	0.000000	0.000000	0.000000
; Manhole
2690405	19.770000	2.220000	0.000000	0.000000	0.000000
; Manhole
2690406	17.800000	3.940000	0.000000	0.000000	0.000000
; Manhole
2690455	11.500000	2.440000	0.000000	0.000000	0.000000
; Manhole
2690456	13.360000	1.400000	0.000000	0.000000	0.000000
; Manhole
2690457	12.790000	1.930000	0.000000	0.000000	0.000000
; Manhole
2690458	14.730000	1.530000	0.000000	0.000000	0.000000
; Manhole
2690459	9.230000	2.340000	0.000000	0.000000	0.000000
; Manhole
2690462	7.700000	3.300000	0.000000	0.000000	0.000000
; Manhole
2690464	9.030000	1.670000	0.000000	0.000000	0.000000
; Manhole
2690465	5.250000	2.570000	0.000000	0.000000	0.000000
; Manhole
2690466	6.650000	1.360000	0.000000	0.000000	0.000000
; Manhole
2690467	2.410000	2.480000	0.000000	0.000000	0.000000
; Manhole
2690468	7.870000	2.130000	0.000000	0.000000	0.000000
; Manhole
2690469	5.560000	2.540000	0.000000	0.000000	0.000000
; Manhole
2690470	3.400000	1.290000	0.000000	0.000000	0.000000
; Manhole
2690471	3.500000	2.010000	0.000000	0.000000	0.000000
; Manhole
2690472	8.520000	2.000000	0.000000	0.000000	0.000000
; Manhole
2690473	10.780000	1.140000	0.000000	0.000000	0.000000
; Manhole
2690474	6.400000	1.390000	0.000000	0.000000	0.000000
; Manhole