[TITLE]
;;Project Title/Notes

[OPTIONS]
;;Option             Value
FLOW_UNITS           CFS
INFILTRATION         HORTON
FLOW_ROUTING         DYNWAVE
LINK_OFFSETS         DEPTH
MIN_SLOPE            0
ALLOW_PONDING        NO
SKIP_STEADY_STATE    NO

START_DATE           01/01/2002
START_TIME           00:00:00
REPORT_START_DATE    01/01/2002
REPORT_START_TIME    00:00:00
END_DATE             01/01/2002
END_TIME             12:00:00
SWEEP_START          01/01
SWEEP_END            12/31
DRY_DAYS             5.000000
REPORT_STEP          00:05:00
WET_STEP             01:00:00
DRY_STEP             23:00:00
ROUTING_STEP         0:05:00 

INERTIAL_DAMPING     NONE
NORMAL_FLOW_LIMITED  BOTH
FORCE_MAIN_EQUATION  H-W
VARIABLE_STEP        0.75
LENGTHENING_STEP     0
MIN_SURFAREA         12.557
MAX_TRIALS           8
HEAD_TOLERANCE       0.005
SYS_FLOW_TOL         5
LAT_FLOW_TOL         5
MINIMUM_STEP         0.5
THREADS              1

[EVAPORATION]
;;Data Source    Parameters
;;-------------- ----------------
CONSTANT         0.0
DRY_ONLY         NO

[JUNCTIONS]
;;Name           Elevation  MaxDepth   InitDepth  SurDepth   Aponded   
;;-------------- ---------- ---------- ---------- ---------- ----------
205MH001         237.558072 2.464918   0.000000   0.000000   0.000000  
205MH002         233.184192 4.723181   0.000000   0.000000   0.000000  
205MH003         232.452672 2.970276   0.000000   0.000000   0.000000  
205MH004         225.875088 3.098292   0.000000   0.000000   0.000000  
205MH005         220.373448 3.099816   0.000000   0.000000   0.000000  
205MH006         214.435944 2.971190   0.000000   0.000000   0.000000  
205MH011         231.281326 7.181698   0.000000   0.000000   0.000000  
205MH013         230.459280 2.945892   0.000000   0.000000   0.000000  
205MH014         230.005128 3.149498   0.000000   0.000000   0.000000  
205MH015         229.450392 2.844394   0.000000   0.000000   0.000000  
205MH016         224.838768 2.998622   0.000000   0.000000   0.000000  
205MH017         219.593160 3.302508   0.000000   0.000000   0.000000  
205MH020         215.182704 3.379013   0.000000   0.000000   0.000000  
205MH021         213.658704 3.225698   0.000000   0.000000   0.000000  
205MH022         212.338920 3.404616   0.000000   0.000000   0.000000  
205MH027         229.319328 3.861511   0.000000   0.000000   0.000000  
205MH028         228.441504 4.481170   0.000000   0.000000   0.000000  
205MH029         227.316792 4.623206   0.000000   0.000000   0.000000  
205MH030         224.518728 3.913022   0.000000   0.000000   0.000000  
205MH031         221.815152 3.709416   0.000000   0.000000   0.000000  
205MH032         219.331032 3.201314   0.000000   0.000000   0.000000  
205MH033         214.634064 3.302508   0.000000   0.000000   0.000000  
205MH036         236.514132 3.048000   0.000000   0.000000   0.000000  
205MH037         232.022904 1.320698   0.000000   0.000000   0.000000  
205MH038         229.264464 2.616403   0.000000   0.000000   0.000000  
205MH039         227.097336 3.708806   0.000000   0.000000   0.000000  
205MH040         224.485200 4.520794   0.000000   0.000000   0.000000  
205MH043         216.792048 3.961181   0.000000   0.000000   0.000000  
205MH044         215.130888 4.242206   0.000000   0.000000   0.000000  
205MH045         214.448136 4.723790   0.000000   0.000000   0.000000  
206MH001         208.961736 2.920594   0.000000   0.000000   0.000000  
206MH002         204.091032 3.098292   0.000000   0.000000   0.000000  
206MH003         203.518008 2.641397   0.000000   0.000000   0.000000  
206MH004         203.161392 2.794406   0.000000   0.000000   0.000000  
206MH005         202.627992 2.768498   0.000000   0.000000   0.000000  
206MH006         202.384152 2.817876   0.000000   0.000000   0.000000  
206MH007         202.042776 2.108302   0.000000   0.000000   0.000000  
206MH008         201.125328 2.284476   0.000000   0.000000   0.000000  
206MH009         200.329800 1.523086   0.000000   0.000000   0.000000  
206MH044         210.827112 4.166616   0.000000   0.000000   0.000000  
206MH045         210.799680 4.164787   0.000000   0.000000   0.000000  
206MH046         210.165696 4.088892   0.000000   0.000000   0.000000  
206MH047         209.988912 4.062679   0.000000   0.000000   0.000000  
206MH048         209.303112 3.987698   0.000000   0.000000   0.000000  
206MH049         205.517496 3.404616   0.000000   0.000000   0.000000  
206MH050         208.022952 2.896210   0.000000   0.000000   0.000000  
206MH051         206.017368 3.326587   0.000000   0.000000   0.000000  
206MH055         190.856616 2.692298   0.000000   0.000000   0.000000  
206MH056         188.796168 2.108911   0.000000   0.000000   0.000000  
206MH057         186.674760 2.767889   0.000000   0.000000   0.000000  
206MH061         185.056272 2.817876   0.000000   0.000000   0.000000  
206MH062         185.303160 2.666086   0.000000   0.000000   0.000000  
206MH063         184.160160 2.692908   0.000000   0.000000   0.000000  
206MH064         181.490112 2.944978   0.000000   0.000000   0.000000  
206MH065         179.649120 2.894076   0.000000   0.000000   0.000000  
207MH004         184.961784 2.794102   0.000000   0.000000   0.000000  
207MH005         183.660288 3.148889   0.000000   0.000000   0.000000  
207MH006         181.755288 2.590800   0.000000   0.000000   0.000000  
207MH007         180.594000 2.641092   0.000000   0.000000   0.000000  
207MH008         179.170584 2.844698   0.000000   0.000000   0.000000  
207MH009         176.918112 2.540813   0.000000   0.000000   0.000000  
207MH010         175.144176 2.592019   0.000000   0.000000   0.000000  
207MH011         172.224192 2.336292   0.000000   0.000000   0.000000  
207MH012         168.752520 2.134210   0.000000   0.000000   0.000000  
207MH013         165.799008 2.617013   0.000000   0.000000   0.000000  
207MH016         183.812688 2.589886   0.000000   0.000000   0.000000  
207MH019         181.944264 2.667000   0.000000   0.000000   0.000000  
207MH020         180.027072 2.386889   0.000000   0.000000   0.000000  
207MH021         176.607216 3.201314   0.000000   0.000000   0.000000  
207MH022         175.317912 2.691079   0.000000   0.000000   0.000000  
207MH023         172.666152 2.818181   0.000000   0.000000   0.000000  
207MH024         169.663872 2.818790   0.000000   0.000000   0.000000  
207MH025         168.051480 2.844698   0.000000   0.000000   0.000000  
207MH026         165.600888 2.845003   0.000000   0.000000   0.000000  
207MH031         179.575968 2.388108   0.000000   0.000000   0.000000  
207MH035         178.585368 2.488692   0.000000   0.000000   0.000000  
207MH036         176.598072 2.895600   0.000000   0.000000   0.000000  
207MH037         174.568104 2.844698   0.000000   0.000000   0.000000  
207MH038         172.535088 2.869997   0.000000   0.000000   0.000000  
207MH039         170.124120 2.615489   0.000000   0.000000   0.000000  
207MH040         167.118792 2.667610   0.000000   0.000000   0.000000  
207MH041         175.903000 2.438223   0.000000   0.000000   0.000000  
207MH045         176.564544 3.047695   0.000000   0.000000   0.000000  
207MH046         175.372776 2.743505   0.000000   0.000000   0.000000  
207MH047         172.358304 2.716073   0.000000   0.000000   0.000000  
207MH050         182.401464 2.742590   0.000000   0.000000   0.000000  
207MH051         180.216048 2.795016   0.000000   0.000000   0.000000  
207MH052         177.036984 2.616403   0.000000   0.000000   0.000000  
207MH053         177.881280 2.795016   0.000000   0.000000   0.000000  
207MH054         174.336456 2.921203   0.000000   0.000000   0.000000  
207MH055         170.121072 2.997708   0.000000   0.000000   0.000000  
208MH004         175.296576 2.666390   0.000000   0.000000   0.000000  
208MH005         173.150784 2.337511   0.000000   0.000000   0.000000  
208MH006         171.325032 2.310384   0.000000   0.000000   0.000000  
208MH007         169.599864 2.286610   0.000000   0.000000   0.000000  
208MH008         166.399464 3.779825   0.000000   0.000000   0.000000  
208MH021         169.919904 2.642311   0.000000   0.000000   0.000000  
208MH022         166.637208 2.360981   0.000000   0.000000   0.000000  
208MH023         165.107112 2.439010   0.000000   0.000000   0.000000  
208MH024         164.278056 2.310079   0.000000   0.000000   0.000000  
208MH025         163.020000 2.677814   0.000000   0.000000   0.000000  
208MH026         161.854896 2.591714   0.000000   0.000000   0.000000  
208MH028         174.260256 1.768145   0.000000   0.000000   0.000000  
208MH029         173.013624 2.439314   0.000000   0.000000   0.000000  
208MH030         172.504608 2.987040   0.000000   0.000000   0.000000  
208MH039         165.887400 2.438705   0.000000   0.000000   0.000000  
208MH040         166.768272 2.439619   0.000000   0.000000   0.000000  
208MH041         167.341296 2.439619   0.000000   0.000000   0.000000  
208MH042         172.291248 2.562149   0.000000   0.000000   0.000000  
208MH043         171.510960 2.667305   0.000000   0.000000   0.000000  
208MH047         169.709592 2.712415   0.000000   0.000000   0.000000  
208MH048         167.146224 2.895905   0.000000   0.000000   0.000000  
208MH052         165.485064 2.638654   0.000000   0.000000   0.000000  
208MH053         165.436296 2.692298   0.000000   0.000000   0.000000  
208MH054         165.591744 2.639263   0.000000   0.000000   0.000000  
208MH055         165.847776 2.462479   0.000000   0.000000   0.000000  
208MH056         164.409120 2.794711   0.000000   0.000000   0.000000  
208MH057         162.025584 2.741676   0.000000   0.000000   0.000000  
208MH058         162.121596 4.556455   0.000000   0.000000   0.000000  
208MH059         161.163000 2.335682   0.000000   0.000000   0.000000  
208MH062         160.562544 2.488997   0.000000   0.000000   0.000000  
208MH063         159.654240 2.692298   0.000000   0.000000   0.000000  
208MH064         172.675296 2.793187   0.000000   0.000000   0.000000  
209MH015         171.510960 2.666695   0.000000   0.000000   0.000000  
209MH016         169.328592 2.691079   0.000000   0.000000   0.000000  
209MH017         167.606472 2.943758   0.000000   0.000000   0.000000  
209MH018         166.786560 2.385670   0.000000   0.000000   0.000000  
209MH019         165.805104 2.234184   0.000000   0.000000   0.000000  
209MH020         164.954712 2.029663   0.000000   0.000000   0.000000  
209MH021         162.979608 3.451555   0.000000   0.000000   0.000000  
209MH022         162.818064 3.480206   0.000000   0.000000   0.000000  
209MH023         162.400488 3.429610   0.000000   0.000000   0.000000  
209MH024         161.583624 3.606698   0.000000   0.000000   0.000000  
209MH025         161.245296 3.323234   0.000000   0.000000   0.000000  
209MH026         160.769808 2.564282   0.000000   0.000000   0.000000  
209MH027         159.206184 2.537460   0.000000   0.000000   0.000000  
209MH028         157.627320 2.109216   0.000000   0.000000   0.000000  
209MH029         156.124656 2.195779   0.000000   0.000000   0.000000  
209MH030         169.136568 2.691994   0.000000   0.000000   0.000000  
209MH031         166.436040 2.919374   0.000000   0.000000   0.000000  
209MH032         163.860480 2.820010   0.000000   0.000000   0.000000  
209MH033         162.735768 2.489606   0.000000   0.000000   0.000000  
209MH034         162.665664 2.486558   0.000000   0.000000   0.000000  
209MH036         166.091616 2.539898   0.000000   0.000000   0.000000  
209MH037         166.990776 2.363114   0.000000   0.000000   0.000000  
209MH038         165.006528 2.667610   0.000000   0.000000   0.000000  
209MH039         160.833816 2.462479   0.000000   0.000000   0.000000  
209MH040         159.974280 2.439314   0.000000   0.000000   0.000000  
209MH041         159.675576 2.439314   0.000000   0.000000   0.000000  
209MH042         158.654496 2.741676   0.000000   0.000000   0.000000  
209MH043         160.827720 2.486558   0.000000   0.000000   0.000000  
209MH044         160.830768 3.098902   0.000000   0.000000   0.000000  
209MH045         160.830768 2.438095   0.000000   0.000000   0.000000  
209MH046         160.300416 2.439010   0.000000   0.000000   0.000000  
209MH047         159.989520 2.487473   0.000000   0.000000   0.000000  
209MH048         164.784024 2.386889   0.000000   0.000000   0.000000  
209MH049         162.574224 2.487473   0.000000   0.000000   0.000000  
209MH050         160.910016 2.439314   0.000000   0.000000   0.000000  
209MH051         158.913576 2.513990   0.000000   0.000000   0.000000  
209MH059         161.297112 3.377489   0.000000   0.000000   0.000000  
209MH060         159.581088 3.429914   0.000000   0.000000   0.000000  
209MH061         159.410400 3.401873   0.000000   0.000000   0.000000  
209MH062         158.005272 3.401873   0.000000   0.000000   0.000000  
209MH063         156.127704 3.428695   0.000000   0.000000   0.000000  
209MH064         154.210512 3.453079   0.000000   0.000000   0.000000  
209MH073         172.035216 2.805074   0.000000   0.000000   0.000000  
209MH074         170.078400 2.682240   0.000000   0.000000   0.000000  
210MH013         160.550352 2.795016   0.000000   0.000000   0.000000  
210MH014         159.742632 2.944368   0.000000   0.000000   0.000000  
210MH015         159.251904 2.108606   0.000000   0.000000   0.000000  
210MH016         157.700472 3.223260   0.000000   0.000000   0.000000  
210MH017         155.969208 3.095244   0.000000   0.000000   0.000000  
210MH018         154.935936 3.428695   0.000000   0.000000   0.000000  
210MH019         153.408888 3.478987   0.000000   0.000000   0.000000  
210MH022         154.451304 3.429610   0.000000   0.000000   0.000000  
210MH023         153.683208 3.454298   0.000000   0.000000   0.000000  
210MH024         152.381712 3.353714   0.000000   0.000000   0.000000  
210MH025         151.180800 3.377184   0.000000   0.000000   0.000000  
210MH026         150.592536 3.250387   0.000000   0.000000   0.000000  
210MH027         150.321264 3.021482   0.000000   0.000000   0.000000  
210MH028         149.769576 2.924556   0.000000   0.000000   0.000000  
211MH009         151.278336 3.201619   0.000000   0.000000   0.000000  
305MH001         232.912920 2.639263   0.000000   0.000000   0.000000  
305MH002         231.410256 2.361895   0.000000   0.000000   0.000000  
305MH003         228.237288 2.845003   0.000000   0.000000   0.000000  
305MH004         224.268792 4.572305   0.000000   0.000000   0.000000  
305MH005         223.860360 4.063289   0.000000   0.000000   0.000000  
305MH006         221.339664 3.353105   0.000000   0.000000   0.000000  
305MH007         217.861896 3.351886   0.000000   0.000000   0.000000  
305MH008         213.725760 4.844796   0.000000   0.000000   0.000000  
305MH009         213.491064 4.215994   0.000000   0.000000   0.000000  
305MH010         212.092032 3.328416   0.000000   0.000000   0.000000  
305MH011         210.028536 3.095549   0.000000   0.000000   0.000000  
305MH012         214.219536 4.748174   0.000000   0.000000   0.000000  
305MH016         224.805240 2.285086   0.000000   0.000000   0.000000  
305MH017         222.839280 1.956206   0.000000   0.000000   0.000000  
305MH018         220.659960 2.058619   0.000000   0.000000   0.000000  
305MH025         209.806032 2.842870   0.000000   0.000000   0.000000  
305MH026         208.318608 2.971495   0.000000   0.000000   0.000000  
305MH027         207.023208 2.894990   0.000000   0.000000   0.000000  
305MH028         203.365608 2.870911   0.000000   0.000000   0.000000  
305MH031         224.722944 3.553054   0.000000   0.000000   0.000000  
305MH032         221.863920 3.352190   0.000000   0.000000   0.000000  
305MH033         218.422728 2.791663   0.000000   0.000000   0.000000  
305MH034         214.810848 2.868168   0.000000   0.000000   0.000000  
305MH035         211.028280 3.199486   0.000000   0.000000   0.000000  
305MH036         222.784416 1.905914   0.000000   0.000000   0.000000  
305MH037         220.160088 2.871216   0.000000   0.000000   0.000000  
305MH038         215.859360 2.895600   0.000000   0.000000   0.000000  
305MH039         210.869784 2.843174   0.000000   0.000000   0.000000  
305MH040         208.574640 2.844698   0.000000   0.000000   0.000000  
305MH041         206.968344 2.818181   0.000000   0.000000   0.000000  
305MH042         202.256136 2.919070   0.000000   0.000000   0.000000  
305MH048         222.504000 4.314444   0.000000   0.000000   0.000000  
305MH049         220.370400 4.400702   0.000000   0.000000   0.000000  
305MH050         218.846400 3.925214   0.000000   0.000000   0.000000  
305MH051         216.103200 4.195877   0.000000   0.000000   0.000000  
306MH001         205.605888 4.116019   0.000000   0.000000   0.000000  
306MH002         205.508352 3.604565   0.000000   0.000000   0.000000  
306MH003         205.596744 4.039210   0.000000   0.000000   0.000000  
306MH004         206.489808 4.694834   0.000000   0.000000   0.000000  
306MH005         202.337822 3.205582   0.000000   0.000000   0.000000  
306MH006         198.778368 1.956511   0.000000   0.000000   0.000000  
306MH007         198.351648 2.132990   0.000000   0.000000   0.000000  
306MH008         197.693280 2.240280   0.000000   0.000000   0.000000  
306MH009         197.464680 2.488692   0.000000   0.000000   0.000000  
306MH010         197.251320 2.254910   0.000000   0.000000   0.000000  
306MH011         196.818504 1.675181   0.000000   0.000000   0.000000  
306MH013         194.508120 1.397203   0.000000   0.000000   0.000000  
306MH014         192.371472 1.523390   0.000000   0.000000   0.000000  
306MH015         192.356232 1.498092   0.000000   0.000000   0.000000  
306MH016         192.356232 2.277466   0.000000   0.000000   0.000000  
306MH017         191.530224 1.725168   0.000000   0.000000   0.000000  
306MH018         190.012320 1.726082   0.000000   0.000000   0.000000  
306MH019         188.765688 1.723949   0.000000   0.000000   0.000000  
306MH020         196.702680 3.071774   0.000000   0.000000   0.000000  
306MH021         192.795144 2.589276   0.000000   0.000000   0.000000  
306MH027         189.553596 4.471721   0.000000   0.000000   0.000000  
306MH028         185.940192 2.998622   0.000000   0.000000   0.000000  
306MH029         182.383176 2.819095   0.000000   0.000000   0.000000  
306MH039         186.976512 3.427476   0.000000   0.000000   0.000000  
306MH040         182.657496 2.439010   0.000000   0.000000   0.000000  
306MH042         179.350416 2.791054   0.000000   0.000000   0.000000  
306MH043         176.796192 2.970886   0.000000   0.000000   0.000000  
306MH046         187.052712 3.504590   0.000000   0.000000   0.000000  
306MH050         178.268376 2.716378   0.000000   0.000000   0.000000  
306MH051         180.481224 2.716073   0.000000   0.000000   0.000000  
306MH052         179.667408 2.767889   0.000000   0.000000   0.000000  
306MH053         195.413376 2.971495   0.000000   0.000000   0.000000  
306MH054         193.944240 2.791968   0.000000   0.000000   0.000000  
306MH055         192.837816 2.766974   0.000000   0.000000   0.000000  
307MH001         179.073048 2.413406   0.000000   0.000000   0.000000  
307MH002         173.220888 2.666695   0.000000   0.000000   0.000000  
307MH003         171.578016 2.842260   0.000000   0.000000   0.000000  
307MH004         164.720016 3.658210   0.000000   0.000000   0.000000  
307MH005         163.150296 2.232965   0.000000   0.000000   0.000000  
307MH006         161.882328 2.489606   0.000000   0.000000   0.000000  
307MH007         161.385504 2.234489   0.000000   0.000000   0.000000  
307MH008         160.382712 2.463698   0.000000   0.000000   0.000000  
307MH009         160.224216 2.106778   0.000000   0.000000   0.000000  
307MH010         163.741608 2.334768   0.000000   0.000000   0.000000  
307MH011         163.445952 2.716073   0.000000   0.000000   0.000000  
307MH012         177.585624 2.842260   0.000000   0.000000   0.000000  
307MH013         175.951896 2.895295   0.000000   0.000000   0.000000  
307MH014         172.538136 2.943149   0.000000   0.000000   0.000000  
307MH015         168.615360 2.944063   0.000000   0.000000   0.000000  
307MH016         165.369240 2.868778   0.000000   0.000000   0.000000  
307MH017         163.641024 2.817876   0.000000   0.000000   0.000000  
307MH018         162.205416 2.970276   0.000000   0.000000   0.000000  
307MH023         155.841192 2.184806   0.000000   0.000000   0.000000  
307MH024         156.408120 1.046988   0.000000   0.000000   0.000000  
307MH025         156.975048 2.793797   0.000000   0.000000   0.000000  
307MH026         158.233872 4.315358   0.000000   0.000000   0.000000  
307MH027         158.404560 3.097682   0.000000   0.000000   0.000000  
307MH028         173.455584 2.972105   0.000000   0.000000   0.000000  
307MH029         170.392344 2.818790   0.000000   0.000000   0.000000  
307MH030         166.573200 2.971800   0.000000   0.000000   0.000000  
307MH031         161.589720 2.973019   0.000000   0.000000   0.000000  
307MH032         158.825184 2.716987   0.000000   0.000000   0.000000  
307MH033         157.429200 2.870302   0.000000   0.000000   0.000000  
307MH034         155.768040 4.089197   0.000000   0.000000   0.000000  
307MH035         155.295600 2.286000   0.000000   0.000000   0.000000  
308MH001         165.183312 2.462174   0.000000   0.000000   0.000000  
308MH002         163.814760 2.387803   0.000000   0.000000   0.000000  
308MH003         162.205416 2.386584   0.000000   0.000000   0.000000  
308MH004         160.964880 2.013509   0.000000   0.000000   0.000000  
308MH005         159.075120 1.324966   0.000000   0.000000   0.000000  
308MH006         154.920696 4.794504   0.000000   0.000000   0.000000  
308MH007         154.015440 3.870960   0.000000   0.000000   0.000000  
308MH008         152.732232 2.259787   0.000000   0.000000   0.000000  
308MH009         152.262840 3.910889   0.000000   0.000000   0.000000  
308MH010         152.125680 4.418076   0.000000   0.000000   0.000000  
308MH011         151.933656 4.570781   0.000000   0.000000   0.000000  
308MH012         151.543512 4.446118   0.000000   0.000000   0.000000  
308MH013         160.010856 2.639873   0.000000   0.000000   0.000000  
308MH014         159.117792 2.284781   0.000000   0.000000   0.000000  
308MH015         157.407864 2.284476   0.000000   0.000000   0.000000  
308MH016         155.688792 2.360676   0.000000   0.000000   0.000000  
308MH019         158.547816 2.386584   0.000000   0.000000   0.000000  
308MH026         152.214072 1.877873   0.000000   0.000000   0.000000  
308MH027         151.260048 2.563673   0.000000   0.000000   0.000000  
308MH028         150.833328 3.385718   0.000000   0.000000   0.000000  
308MH029         151.878792 2.360676   0.000000   0.000000   0.000000  
309MH001         156.664152 2.437181   0.000000   0.000000   0.000000  
309MH002         154.753056 2.564282   0.000000   0.000000   0.000000  
309MH003         153.308304 2.590495   0.000000   0.000000   0.000000  
309MH004         150.747984 4.166311   0.000000   0.000000   0.000000  
309MH005         150.321264 4.166311   0.000000   0.000000   0.000000  
309MH006         149.882352 4.215689   0.000000   0.000000   0.000000  
309MH007         149.470872 4.037381   0.000000   0.000000   0.000000  
309MH008         151.040592 4.291584   0.000000   0.000000   0.000000  
309MH009         158.916624 2.514600   0.000000   0.000000   0.000000  
309MH010         157.036008 2.463394   0.000000   0.000000   0.000000  
309MH011         156.237432 2.489911   0.000000   0.000000   0.000000  
309MH012         155.829000 2.361286   0.000000   0.000000   0.000000  
309MH013         155.103576 2.538984   0.000000   0.000000   0.000000  
309MH014         157.752288 2.385974   0.000000   0.000000   0.000000  
309MH015         155.819856 2.414016   0.000000   0.000000   0.000000  
309MH016         151.863552 2.464003   0.000000   0.000000   0.000000  
309MH017         155.859480 3.656990   0.000000   0.000000   0.000000  
309MH018         154.829256 2.563978   0.000000   0.000000   0.000000  
309MH019         152.979120 2.414016   0.000000   0.000000   0.000000  
309MH020         154.170888 2.538070   0.000000   0.000000   0.000000  
309MH021         150.860760 4.022750   0.000000   0.000000   0.000000  
309MH022         148.916136 4.062679   0.000000   0.000000   0.000000  
309MH023         147.751800 4.115714   0.000000   0.000000   0.000000  
309MH024         148.629624 3.885895   0.000000   0.000000   0.000000  
309MH025         150.406608 3.123286   0.000000   0.000000   0.000000  
309MH026         149.717760 2.639263   0.000000   0.000000   0.000000  
309MH027         149.141688 2.537460   0.000000   0.000000   0.000000  
309MH028         146.639280 4.298594   0.000000   0.000000   0.000000  
309MH029         146.319240 4.357726   0.000000   0.000000   0.000000  
309MH030         145.502376 4.367174   0.000000   0.000000   0.000000  
309MH031         152.729184 3.328111   0.000000   0.000000   0.000000  
309MH032         151.336248 2.920898   0.000000   0.000000   0.000000  
309MH033         149.604984 2.996184   0.000000   0.000000   0.000000  
309MH034         147.315936 2.985516   0.000000   0.000000   0.000000  
309MH035         145.630392 2.818486   0.000000   0.000000   0.000000  
309MH036         144.463008 2.868473   0.000000   0.000000   0.000000  
309MH037         142.847568 2.794102   0.000000   0.000000   0.000000  
309MH038         141.451584 2.843174   0.000000   0.000000   0.000000  
310MH001         152.985216 2.310384   0.000000   0.000000   0.000000  
310MH002         151.031448 2.590800   0.000000   0.000000   0.000000  
310MH003         149.998176 2.439010   0.000000   0.000000   0.000000  
310MH004         150.467568 2.209190   0.000000   0.000000   0.000000  
310MH005         150.238968 4.149242   0.000000   0.000000   0.000000  
310MH006         149.446488 2.945892   0.000000   0.000000   0.000000  
310MH007         149.684232 2.514295   0.000000   0.000000   0.000000  
310MH008         152.128728 2.996184   0.000000   0.000000   0.000000  
310MH009         150.400512 2.845918   0.000000   0.000000   0.000000  
310MH010         148.964904 2.846222   0.000000   0.000000   0.000000  
310MH011         148.574760 2.896514   0.000000   0.000000   0.000000  
310MH012         146.950176 2.895600   0.000000   0.000000   0.000000  
310MH013         150.946104 3.138221   0.000000   0.000000   0.000000  
310MH014         149.095968 2.972105   0.000000   0.000000   0.000000  
310MH015         147.251928 3.022092   0.000000   0.000000   0.000000  
310MH016         145.615152 2.971190   0.000000   0.000000   0.000000  
310MH017         148.525992 3.048610   0.000000   0.000000   0.000000  
310MH018         146.947128 3.046781   0.000000   0.000000   0.000000  
310MH019         144.051528 4.480865   0.000000   0.000000   0.000000  
310MH020         141.823440 5.066690   0.000000   0.000000   0.000000  
310MH021         140.808456 4.012082   0.000000   0.000000   0.000000  
310MH022         139.991592 3.200705   0.000000   0.000000   0.000000  
310MH023         138.665712 2.895905   0.000000   0.000000   0.000000  
310MH024         137.022840 3.150718   0.000000   0.000000   0.000000  
310MH025         145.234152 4.418990   0.000000   0.000000   0.000000  
310MH026         144.121632 4.479341   0.000000   0.000000   0.000000  
310MH027         143.795496 4.137660   0.000000   0.000000   0.000000  
310MH028         142.725648 4.146499   0.000000   0.000000   0.000000  
310MH029         142.280640 4.632350   0.000000   0.000000   0.000000  
310MH030         141.582648 4.877105   0.000000   0.000000   0.000000  
310MH031         145.032984 2.843479   0.000000   0.000000   0.000000  
310MH032         143.530320 2.766670   0.000000   0.000000   0.000000  
310MH033         141.713712 2.819705   0.000000   0.000000   0.000000  
310MH034         140.460984 2.792882   0.000000   0.000000   0.000000  
310MH035         138.534648 2.944063   0.000000   0.000000   0.000000  
310MH039         137.016744 2.994965   0.000000   0.000000   0.000000  
310MH040         138.467592 2.919374   0.000000   0.000000   0.000000  
310MH041         138.040872 2.919070   0.000000   0.000000   0.000000  
311MH001         144.261840 4.090416   0.000000   0.000000   0.000000  
311MH002         144.021048 3.963314   0.000000   0.000000   0.000000  
311MH003         143.713200 3.656076   0.000000   0.000000   0.000000  
311MH004         143.606520 2.411882   0.000000   0.000000   0.000000  
311MH005         142.576296 2.286914   0.000000   0.000000   0.000000  
311MH006         141.091920 2.614574   0.000000   0.000000   0.000000  
311MH007         139.491720 2.996794   0.000000   0.000000   0.000000  
311MH008         138.647424 2.486863   0.000000   0.000000   0.000000  
311MH009         137.175240 2.439010   0.000000   0.000000   0.000000  
311MH010         136.099296 2.385670   0.000000   0.000000   0.000000  
311MH011         142.396464 3.354019   0.000000   0.000000   0.000000  
311MH012         141.701520 3.529279   0.000000   0.000000   0.000000  
311MH013         141.603984 3.605174   0.000000   0.000000   0.000000  
311MH014         140.945616 3.553663   0.000000   0.000000   0.000000  
311MH023         140.905992 4.754270   0.000000   0.000000   0.000000  
311MH024         140.171424 4.849978   0.000000   0.000000   0.000000  
311MH025         139.436856 4.389425   0.000000   0.000000   0.000000  
311MH026         138.793728 3.840785   0.000000   0.000000   0.000000  
311MH027         138.275568 3.150718   0.000000   0.000000   0.000000  
311MH028         138.156696 3.124505   0.000000   0.000000   0.000000  