[TITLE]
;;Project Title/Notes
Scenario Run :  BASE
Scenario Run :  BASE

[OPTIONS]
;;Option             Value
FLOW_UNITS           MGD
INFILTRATION         HORTON
FLOW_ROUTING         DYNWAVE
LINK_OFFSETS         DEPTH
MIN_SLOPE            0
ALLOW_PONDING        NO
SKIP_STEADY_STATE    NO

IGNORE_SNOWMELT      YES
IGNORE_GROUNDWATER   YES
IGNORE_QUALITY       YES
START_DATE           09/09/2013
START_TIME           00:00:00
REPORT_START_DATE    09/09/2013
REPORT_START_TIME    00:00:00
END_DATE             09/10/2013
END_TIME             00:00:00
SWEEP_START          01/01
SWEEP_END            12/31
DRY_DAYS             0.000000
REPORT_STEP          00:01:00
WET_STEP             00:05:00
DRY_STEP             01:00:00
ROUTING_STEP         0:00:10 

INERTIAL_DAMPING     NONE
NORMAL_FLOW_LIMITED  BOTH
FORCE_MAIN_EQUATION  H-W
VARIABLE_STEP        0.50
LENGTHENING_STEP     10
MIN_SURFAREA         12.557
MAX_TRIALS           8
HEAD_TOLERANCE       0.000010
SYS_FLOW_TOL         5
LAT_FLOW_TOL         5
MINIMUM_STEP         0
THREADS              1

[EVAPORATION]
;;Data Source    Parameters
;;-------------- ----------------
CONSTANT         0.000000
DRY_ONLY         NO

[RAINGAGES]
;;Name           Format    Interval SCF      Source    
;;-------------- --------- ------ ------ ----------
1                INTENSITY 0.250000 1.000000 TIMESERIES SCS_FL_MOD      

[SUBCATCHMENTS]
;;Name           Rain Gage        Outlet           Area     %Imperv  Width    %Slope   CurbLen  SnowPack        
;;-------------- ---------------- ---------------- -------- -------- -------- -------- -------- ----------------
000171_PRIVATE   1                000171           0.000000 0.000000 0.000000 0.000000 0.000000                 
1                1                000634A          0.000000 0.000000 0.000000 0.000000 0.000000                 
10               1                2675A            0.000000 0.000000 0.000000 0.498346 0.000000                 
10_1_1           1                2677             0.000000 0.000000 0.000000 0.234587 0.000000                 
10_1_2           1                000359_1         0.000000 0.000000 0.000000 0.161515 0.000000                 
10_1_3           1                000361_1         0.000000 0.000000 0.000000 0.575950 0.000000                 
10_1_5           1                000357_1         0.000000 0.000000 0.000000 0.557538 0.000000                 
10_1_6           1                000352_1A        0.000000 0.000000 0.000000 0.477633 0.000000                 
10_1_7           1                2663             0.000000 0.000000 0.000000 0.432876 0.000000                 
12               1                000100           0.000000 0.000000 0.000000 0.000000 0.000000                 
13               1                000484_1         0.000000 0.000000 0.000000 0.377208 0.000000                 
13_1             1                000363_1         0.000000 0.000000 0.000000 1.572573 0.000000                 
13_2             1                000370_1         0.000000 0.000000 0.000000 0.211224 0.000000                 
13_2_1           1                000369_1         0.000000 0.000000 0.000000 0.548214 0.000000                 
13_2_2           1                000156           0.000000 0.000000 0.000000 0.000000 0.000000                 
14               1                000170B          0.000000 0.000000 0.000000 0.000000 0.000000                 
15               1                1391             0.000000 0.000000 0.000000 0.000000 0.000000                 
15C              1                1373             0.000000 0.000000 0.000000 0.488912 0.000000                 
15C_1            1                1375             0.000000 0.000000 0.000000 0.172989 0.000000                 
15C_1_1          1                1420             0.000000 0.000000 0.000000 0.281377 0.000000                 
15C_1_1_1        1                1399             0.000000 0.000000 0.000000 0.002908 0.000000                 
15C_1_1_2        1                1402             0.000000 0.000000 0.000000 0.087276 0.000000                 
15C_1_1_3        1                1419             0.000000 0.000000 0.000000 1.157021 0.000000                 
15C_1_1_3_1      1                1420             0.000000 0.000000 0.000000 0.281377 0.000000                 
15C_1_2          1                1399             0.000000 0.000000 0.000000 0.002908 0.000000                 
16               1                000097           0.000000 0.000000 0.000000 0.000000 0.000000                 
17               1                000051           0.000000 0.000000 0.000000 0.000000 0.000000                 
17_1             1                1555             0.000000 0.000000 0.000000 0.334238 0.000000                 
17_2             1                1345             0.000000 0.000000 0.000000 0.226913 0.000000                 
18               1                1597             0.000000 0.000000 0.000000 0.578575 0.000000                 
18_1             1                000695           0.000000 0.000000 0.000000 0.159262 0.000000                 
18_2             1                1619             0.000000 0.000000 0.000000 0.186065 0.000000                 
18_3             1                1621             0.000000 0.000000 0.000000 0.705971 0.000000                 
19               1                000652           0.000000 0.000000 0.000000 0.000000 0.000000                 
2                1                1815             0.000000 0.000000 0.000000 0.022176 0.000000                 
20               1                000805B          0.000000 0.000000 0.000000 0.000000 0.000000                 
21               1                000654           0.000000 0.000000 0.000000 0.000000 0.000000                 
21_1             1                2293             0.000000 0.000000 0.000000 0.062484 0.000000                 
21_2             1                2513             0.000000 0.000000 0.000000 0.028458 0.000000                 
21_2_1           1                2514             0.000000 0.000000 0.000000 0.183346 0.000000                 
21_2_1_1         1                2515             0.000000 0.000000 0.000000 0.118529 0.000000                 
21_2_1_1_1       1                2516             0.000000 0.000000 0.000000 0.418203 0.000000                 
2_1              1                2128             0.000000 0.000000 0.000000 2.426273 0.000000                 
2_10             1                000259_1A        0.000000 0.000000 0.000000 0.423236 0.000000                 
2_11             1                2416             0.000000 0.000000 0.000000 2.590404 0.000000                 
2_12             1                1849             0.000000 0.000000 0.000000 0.000000 0.000000                 
2_13             1                2379             0.000000 0.000000 0.000000 0.195614 0.000000                 
2_14             1                2382             0.000000 0.000000 0.000000 0.709887 0.000000                 
2_15             1                2257             0.000000 0.000000 0.000000 0.545222 0.000000                 
2_16             1                1833             0.000000 0.000000 0.000000 2.317694 0.000000                 
2_17             1                2050             0.000000 0.000000 0.000000 0.475019 0.000000                 
2_18             1                1835             0.000000 0.000000 0.000000 0.795590 0.000000                 
2_19             1                1819             0.000000 0.000000 0.000000 1.192712 0.000000                 
2_2              1                000232_1         0.000000 0.000000 0.000000 0.000000 0.000000                 
2_3              1                2352             0.000000 0.000000 0.000000 0.000000 0.000000                 
2_4              1                2350             0.000000 0.000000 0.000000 0.014247 0.000000                 
2_5              1                2340             0.000000 0.000000 0.000000 0.346493 0.000000                 
2_6              1                000474_1         0.000000 0.000000 0.000000 1.549801 0.000000                 
2_7              1                000294_1         0.000000 0.000000 0.000000 0.000000 0.000000                 
2_8              1                2420             0.000000 0.000000 0.000000 0.000000 0.000000                 
2_9              1                000266_1         0.000000 0.000000 0.000000 0.728756 0.000000                 
30               1                000517           0.000000 0.000000 0.000000 0.000000 0.000000                 
33               1                000305           0.000000 0.000000 0.000000 0.000000 0.000000                 
34               1                000709           0.000000 0.000000 0.000000 0.000000 0.000000                 
34_1             1                000709           0.000000 0.000000 0.000000 0.000000 0.000000                 
36               1                000824           0.000000 0.000000 0.000000 0.000000 0.000000                 
37               1                000195           0.000000 0.000000 0.000000 0.000000 0.000000                 
38               1                000245           0.000000 0.000000 0.000000 0.000000 0.000000                 
39               1                000717           0.000000 0.000000 0.000000 0.000000 0.000000                 
4                1                000401_1         0.000000 0.000000 0.000000 0.000000 0.000000                 
40               1                000593A          0.000000 0.000000 0.000000 0.000000 0.000000                 
41               1                000359           0.000000 0.000000 0.000000 0.000000 0.000000                 
42               1                9793             0.000000 0.000000 0.000000 0.351208 0.000000                 
43               1                000460           0.000000 0.000000 0.000000 0.000000 0.000000                 
44               1                000068           0.000000 0.000000 0.000000 0.000000 0.000000                 
45               1                5225             0.000000 0.000000 0.000000 0.000000 0.000000                 
45_1             1                5604             0.000000 0.000000 0.000000 0.318339 0.000000                 
48               1                000420           0.000000 0.000000 0.000000 0.000000 0.000000                 
49               1                000756A          0.000000 0.000000 0.000000 0.000000 0.000000                 
4_1              1                2221A            0.000000 0.000000 0.000000 0.000000 0.000000                 
4_2              1                2012             0.000000 0.000000 0.000000 0.133778 0.000000                 
4_4              1                2207             0.000000 0.000000 0.000000 0.051753 0.000000                 
5                1                1798             0.000000 0.000000 0.000000 0.815480 0.000000                 
51               1                000470B          0.000000 0.000000 0.000000 0.000000 0.000000                 
52               1                000490           0.000000 0.000000 0.000000 0.000000 0.000000                 
5_1              1                000643B          0.000000 0.000000 0.000000 0.000000 0.000000                 
5_2              1                000461_1         0.000000 0.000000 0.000000 0.373095 0.000000                 
5_3              1                000456_1         0.000000 0.000000 0.000000 0.000000 0.000000                 
5_4              1                000096_1         0.000000 0.000000 0.000000 1.253226 0.000000                 
5_5              1                2082             0.000000 0.000000 0.000000 0.405230 0.000000                 
5_6              1                000091_1         0.000000 0.000000 0.000000 0.000000 0.000000                 
5_7              1                1801             0.000000 0.000000 0.000000 0.176848 0.000000                 
5_8              1                1735             0.000000 0.000000 0.000000 0.235323 0.000000                 
5_9              1                000036_1         0.000000 0.000000 0.000000 0.527853 0.000000                 
5_9_1            1                1735             0.000000 0.000000 0.000000 0.235323 0.000000                 
5_9_2            1                1733             0.000000 0.000000 0.000000 0.068507 0.000000                 
5_9_3            1                1692             0.000000 0.000000 0.000000 0.000000 0.000000                 
6                1                1660             0.000000 0.000000 0.000000 0.080453 0.000000                 
6_1              1                000099_1         0.000000 0.000000 0.000000 0.127351 0.000000                 
6_2              1                1659             0.000000 0.000000 0.000000 0.011150 0.000000                 
6_3              1                1671             0.000000 0.000000 0.000000 1.493504 0.000000                 
6_3_1            1                000037_1A        0.000000 0.000000 0.000000 0.439276 0.000000                 
6_3_2            1                000049_1         0.000000 0.000000 0.000000 0.426916 0.000000                 
6_3_2_1          1                000025_1         0.000000 0.000000 0.000000 0.070794 0.000000                 
6_3_2_2          1                000055_1         0.000000 0.000000 0.000000 2.407192 0.000000                 
6_3_2_3          1                000050_1         0.000000 0.000000 0.000000 0.622462 0.000000                 
6_3_2_4          1                000048_1         0.000000 0.000000 0.000000 0.609165 0.000000                 
6_3_2_5          1                9787             0.000000 0.000000 0.000000 0.242013 0.000000                 
6_3_2_5_1        1                000059_1         0.000000 0.000000 0.000000 0.783220 0.000000                 
6_3_2_5_2        1                000057_1         0.000000 0.000000 0.000000 1.563484 0.000000                 
6_3_2_5_3        1                9785             0.000000 0.000000 0.000000 0.000000 0.000000                 
6_3_2_5_3_1      1                9788             0.000000 0.000000 0.000000 0.000004 0.000000                 
6_4              1                1681             0.000000 0.000000 0.000000 0.035983 0.000000                 
7                1                1720             0.000000 0.000000 0.000000 0.120879 0.000000                 
7_1              1                000160_1         0.000000 0.000000 0.000000 0.164169 0.000000                 
7_2              1                2099             0.000000 0.000000 0.000000 0.264231 0.000000                 
7_3              1                2063             0.000000 0.000000 0.000000 0.183600 0.000000                 
7_4              1                2058             0.000000 0.000000 0.000000 0.000000 0.000000                 
7_5              1                2055             0.000000 0.000000 0.000000 0.000004 0.000000                 
7_6              1                2052             0.000000 0.000000 0.000000 0.000000 0.000000                 
7_7              1                1775             0.000000 0.000000 0.000000 0.000000 0.000000                 
8                1                000655           0.000000 0.000000 0.000000 0.000000 0.000000                 
9                1                000005           0.000000 0.000000 0.000000 0.000000 0.000000                 
LS10             1                2674A            0.000000 0.000000 0.000000 0.246163 0.000000                 
LS10B            1                000154           0.000000 0.000000 0.000000 0.000000 0.000000                 
LS11             1                000603           0.000000 0.000000 0.000000 0.000000 0.000000                 
LS22             1                000513           0.000000 0.000000 0.000000 0.000000 0.000000                 
LS23             1                000604           0.000000 0.000000 0.000000 0.000000 0.000000                 
LS24             1                000158B          0.000000 0.000000 0.000000 0.000000 0.000000                 
LS25             1                000387           0.000000 0.000000 0.000000 0.000000 0.000000                 
LS26             1                000530           0.000000 0.000000 0.000000 0.000000 0.000000                 
LS27             1                000667           0.000000 0.000000 0.000000 0.000000 0.000000                 
LS28             1                000268           0.000000 0.000000 0.000000 1.080003 0.000000                 
LS31             1                000793           0.000000 0.000000 0.000000 0.000000 0.000000                 
LS32             1                000459           0.000000 0.000000 0.000000 0.000000 0.000000                 
LS35_1           1                000091           0.000000 0.000000 0.000000 0.000000 0.000000                 
LS39             1                000717           0.000000 0.000000 0.000000 0.000000 0.000000                 
LS4              1                000195_1         0.000000 0.000000 0.000000 0.000000 0.000000                 
LS4-1            1                000202_1         0.000000 0.000000 0.000000 0.797916 0.000000                 
LS4-2            1                2305             0.000000 0.000000 0.000000 0.307973 0.000000                 
LS4-3            1                1929             0.000000 0.000000 0.000000 0.019564 0.000000                 
LS4-4            1                1928             0.000000 0.000000 0.000000 0.026375 0.000000                 
LS4-5            1                2107             0.000000 0.000000 0.000000 0.194759 0.000000                 
LS46             1                000731           0.000000 0.000000 0.000000 0.000000 0.000000                 
LS47             1                000827           0.000000 0.000000 0.000000 0.000000 0.000000                 
LS50             1                000786           0.000000 0.000000 0.000000 0.000000 0.000000                 

[SUBAREAS]
;;Subcatchment   N-Imperv   N-Perv     S-Imperv   S-Perv     PctZero    RouteTo    PctRouted 
;;-------------- ---------- ---------- ---------- ---------- ---------- ---------- ----------
000171_PRIVATE   0.000000   0.000000   0.000000   0.000000   0.000000   OUTLET    
1                0.000000   0.000000   0.000000   0.000000   0.000000   OUTLET    
10               0.000000   0.000000   0.000000   0.000000   0.000000   OUTLET    
10_1_1           0.000000   0.000000   0.000000   0.000000   0.000000   OUTLET    
10_1_2           0.000000   0.000000   0.000000   0.000000   0.000000   OUTLET    
10_1_3           0.000000   0.000000   0.000000   0.000000   0.000000   OUTLET    
10_1_5           0.000000   0.000000   0.000000   0.000000   0.000000   OUTLET    
10_1_6           0.000000   0.000000   0.000000   0.000000   0.000000   OUTLET    
10_1_7           0.000000   0.000000   0.000000   0.000000   0.000000   OUTLET    
12               0.000000   0.000000   0.000000   0.000000   0.000000   OUTLET    
13               0.000000   0.000000   0.000000   0.000000   0.000000   OUTLET    
13_1             0.000000   0.000000   0.000000   0.000000   0.000000   OUTLET    
13_2             0.000000   0.000000   0.000000   0.000000   0.000000   OUTLET    
13_2_1           0.000000   0.000000   0.000000   0.000000   0.000000   OUTLET    
13_2_2           0.000000   0.000000   0.000000   0.000000   0.000000   OUTLET    
14               0.000000   0.000000   0.000000   0.000000   0.000000   OUTLET    
15               0.000000   0.000000   0.000000   0.000000   0.000000   OUTLET    
15C              0.000000   0.000000   0.000000   0.000000   0.000000   OUTLET    
15C_1            0.000000   0.000000   0.000000   0.000000   0.000000   OUTLET    
15C_1_1          0.000000   0.000000   0.000000   0.000000   0.000000   OUTLET    
15C_1_1_1        0.000000   0.000000   0.000000   0.000000   0.000000   OUTLET    
15C_1_1_2        0.000000   0.000000   0.000000   0.000000   0.000000   OUTLET    
15C_1_1_3        0.000000   0.000000   0.000000   0.000000   0.000000   OUTLET    
15C_1_1_3_1      0.000000   0.000000   0.000000   0.000000   0.000000   OUTLET    
15C_1_2          0.000000   0.000000   0.000000   0.000000   0.000000   OUTLET    
16               0.000000   0.000000   0.000000   0.000000   0.000000   OUTLET    
17               0.000000   0.000000   0.000000   0.000000   0.000000   OUTLET    
17_1             0.000000   0.000000   0.000000   0.000000   0.000000   OUTLET    
17_2             0.000000   0.000000   0.000000   0.000000   0.000000   OUTLET    
18               0.000000   0.000000   0.000000   0.000000   0.000000   OUTLET    
18_1             0.000000   0.000000   0.000000   0.000000   0.000000   OUTLET    
18_2             0.000000   0.000000   0.000000   0.000000   0.000000   OUTLET    
18_3             0.000000   0.000000   0.000000   0.000000   0.000000   OUTLET    
19               0.000000   0.000000   0.000000   0.000000   0.000000   OUTLET    
2                0.000000   0.000000   0.000000   0.000000   0.000000   OUTLET    
20               0.000000   0.000000   0.000000   0.000000   0.000000   OUTLET    
21               0.000000   0.000000   0.000000   0.000000   0.000000   OUTLET    
21_1             0.000000   0.000000   0.000000   0.000000   0.000000   OUTLET    
21_2             0.000000   0.000000   0.000000   0.000000   0.000000   OUTLET    
21_2_1           0.000000   0.000000   0.000000   0.000000   0.000000   OUTLET    
21_2_1_1         0.000000   0.000000   0.000000   0.000000   0.000000   OUTLET    
21_2_1_1_1       0.000000   0.000000   0.000000   0.000000   0.000000   OUTLET    
2_1              0.000000   0.000000   0.000000   0.000000   0.000000   OUTLET    
2_10             0.000000   0.000000   0.000000   0.000000   0.000000   OUTLET    
2_11             0.000000   0.000000   0.000000   0.000000   0.000000   OUTLET    
2_12             0.000000   0.000000   0.000000   0.000000   0.000000   OUTLET    
2_13             0.000000   0.000000   0.000000   0.000000   0.000000   OUTLET    
2_14             0.000000   0.000000   0.000000   0.000000   0.000000   OUTLET    
2_15             0.000000   0.000000   0.000000   0.000000   0.000000   OUTLET    
2_16             0.000000   0.000000   0.000000   0.000000   0.000000   OUTLET    
2_17             0.000000   0.000000   0.000000   0.000000   0.000000   OUTLET    
2_18             0.000000   0.000000   0.000000   0.000000   0.000000   OUTLET    
2_19             0.000000   0.000000   0.000000   0.000000   0.000000   OUTLET    
2_2              0.000000   0.000000   0.000000   0.000000   0.000000   OUTLET    
2_3              0.000000   0.000000   0.000000   0.000000   0.000000   OUTLET    
2_4              0.000000   0.000000   0.000000   0.000000   0.000000   OUTLET    
2_5              0.000000   0.000000   0.000000   0.000000   0.000000   OUTLET    
2_6              0.000000   0.000000   0.000000   0.000000   0.000000   OUTLET    
2_7              0.000000   0.000000   0.000000   0.000000   0.000000   OUTLET    
2_8              0.000000   0.000000   0.000000   0.000000   0.000000   OUTLET    
2_9              0.000000   0.000000   0.000000   0.000000   0.000000   OUTLET    
30               0.000000   0.000000   0.000000   0.000000   0.000000   OUTLET    
33               0.000000   0.000000   0.000000   0.000000   0.000000   OUTLET    
34               0.000000   0.000000   0.000000   0.000000   0.000000   OUTLET    
34_1             0.000000   0.000000   0.000000   0.000000   0.000000   OUTLET    
36               0.000000   0.000000   0.000000   0.000000   0.000000   OUTLET    
37               0.000000   0.000000   0.000000   0.000000   0.000000   OUTLET    
38               0.000000   0.000000   0.000000   0.000000   0.000000   OUTLET    
39               0.000000   0.000000   0.000000   0.000000   0.000000   OUTLET    
4                0.000000   0.000000   0.000000   0.000000   0.000000   OUTLET    
40               0.000000   0.000000   0.000000   0.000000   0.000000   OUTLET    
41               0.000000   0.000000   0.000000   0.000000   0.000000   OUTLET    
42               0.000000   0.000000   0.000000   0.000000   0.000000   OUTLET    
43               0.000000   0.000000   0.000000   0.000000   0.000000   OUTLET    
44               0.000000   0.000000   0.000000   0.000000   0.000000   OUTLET    
45               0.000000   0.000000   0.000000   0.000000   0.000000   OUTLET    
45_1             0.000000   0.000000   0.000000   0.000000   0.000000   OUTLET    
48               0.000000   0.000000   0.000000   0.000000   0.000000   OUTLET    
49               0.000000   0.000000   0.000000   0.000000   0.000000   OUTLET    
4_1              0.000000   0.000000   0.000000   0.000000   0.000000   OUTLET    
4_2              0.000000   0.000000   0.000000   0.000000   0.000000   OUTLET    
4_4              0.000000   0.000000   0.000000   0.000000   0.000000   OUTLET    
5                0.000000   0.000000   0.000000   0.000000   0.000000   OUTLET    
51               0.000000   0.000000   0.000000   0.000000   0.000000   OUTLET    
52               0.000000   0.000000   0.000000   0.000000   0.000000   OUTLET    
5_1              0.000000   0.000000   0.000000   0.000000   0.000000   OUTLET    
5_2              0.000000   0.000000   0.000000   0.000000   0.000000   OUTLET    
5_3              0.000000   0.000000   0.000000   0.000000   0.000000   OUTLET    
5_4              0.000000   0.000000   0.000000   0.000000   0.000000   OUTLET    
5_5              0.000000   0.000000   0.000000   0.000000   0.000000   OUTLET    
5_6              0.000000   0.000000   0.000000   0.000000   0.000000   OUTLET    
5_7              0.000000   0.000000   0.000000   0.000000   0.000000   OUTLET    
5_8              0.000000   0.000000   0.000000   0.000000   0.000000   OUTLET    
5_9              0.000000   0.000000   0.000000   0.000000   0.000000   OUTLET    
5_9_1            0.000000   0.000000   0.000000   0.000000   0.000000   OUTLET    
5_9_2            0.000000   0.000000   0.000000   0.000000   0.000000   OUTLET    
5_9_3            0.000000   0.000000   0.000000   0.000000   0.000000   OUTLET    
6                0.000000   0.000000   0.000000   0.000000   0.000000   OUTLET    
6_1              0.000000   0.000000   0.000000   0.000000   0.000000   OUTLET    
6_2              0.000000   0.000000   0.000000   0.000000   0.000000   OUTLET    
6_3              0.000000   0.000000   0.000000   0.000000   0.000000   OUTLET    
6_3_1            0.000000   0.000000   0.000000   0.000000   0.000000   OUTLET    
6_3_2            0.000000   0.000000   0.000000   0.000000   0.000000   OUTLET    
6_3_2_1          0.000000   0.000000   0.000000   0.000000   0.000000   OUTLET    
6_3_2_2          0.000000   0.000000   0.000000   0.000000   0.000000   OUTLET    
6_3_2_3          0.000000   0.000000   0.000000   0.000000   0.000000   OUTLET    
6_3_2_4          0.000000   0.000000   0.000000   0.000000   0.000000   OUTLET    
6_3_2_5          0.000000   0.000000   0.000000   0.000000   0.000000   OUTLET    
6_3_2_5_1        0.000000   0.000000   0.000000   0.000000   0.000000   OUTLET    
6_3_2_5_2        0.000000   0.000000   0.000000   0.000000   0.000000   OUTLET    
6_3_2_5_3        0.000000   0.000000   0.000000   0.000000   0.000000   OUTLET    
6_3_2_5_3_1      0.000000   0.000000   0.000000   0.000000   0.000000   OUTLET    
6_4              0.000000   0.000000   0.000000   0.000000   0.000000   OUTLET    
7                0.000000   0.000000   0.000000   0.000000   0.000000   OUTLET    
7_1              0.000000   0.000000   0.000000   0.000000   0.000000   OUTLET    
7_2              0.000000   0.000000   0.000000   0.000000   0.000000   OUTLET    
7_3              0.000000   0.000000   0.000000   0.000000   0.000000   OUTLET    
7_4              0.000000   0.000000   0.000000   0.000000   0.000000   OUTLET    
7_5              0.000000   0.000000   0.000000   0.000000   0.000000   OUTLET    
7_6              0.000000   0.000000   0.000000   0.000000   0.000000   OUTLET    
7_7              0.000000   0.000000   0.000000   0.000000   0.000000   OUTLET    
8                0.000000   0.000000   0.000000   0.000000   0.000000   OUTLET    
9                0.000000   0.000000   0.000000   0.000000   0.000000   OUTLET    
LS10             0.000000   0.000000   0.000000   0.000000   0.000000   OUTLET    
LS10B            0.000000   0.000000   0.000000   0.000000   0.000000   OUTLET    
LS11             0.000000   0.000000   0.000000   0.000000   0.000000   OUTLET    
LS22             0.000000   0.000000   0.000000   0.000000   0.000000   OUTLET    
LS23             0.000000   0.000000   0.000000   0.000000   0.000000   OUTLET    
LS24             0.000000   0.000000   0.000000   0.000000   0.000000   OUTLET    
LS25             0.000000   0.000000   0.000000   0.000000   0.000000   OUTLET    
LS26             0.000000   0.000000   0.000000   0.000000   0.000000   OUTLET    
LS27             0.000000   0.000000   0.000000   0.000000   0.000000   OUTLET    
LS28             0.000000   0.000000   0.000000   0.000000   0.000000   OUTLET    
LS31             0.000000   0.000000   0.000000   0.000000   0.000000   OUTLET    
LS32             0.000000   0.000000   0.000000   0.000000   0.000000   OUTLET    
LS35_1           0.000000   0.000000   0.000000   0.000000   0.000000   OUTLET    
LS39             0.000000   0.000000   0.000000   0.000000   0.000000   OUTLET    
LS4              0.000000   0.000000   0.000000   0.000000   0.000000   OUTLET    
LS4-1            0.000000   0.000000   0.000000   0.000000   0.000000   OUTLET    
LS4-2            0.000000   0.000000   0.000000   0.000000   0.000000   OUTLET    