[TITLE]
;;Project Title/Notes

[OPTIONS]
;;Option             Value
FLOW_UNITS           LPS
INFILTRATION         HORTON
FLOW_ROUTING         DYNWAVE
LINK_OFFSETS         DEPTH
MIN_SLOPE            0
ALLOW_PONDING        NO
SKIP_STEADY_STATE    NO

START_DATE           01/01/2002
START_TIME           00:00:00
REPORT_START_DATE    01/01/2002
REPORT_START_TIME    00:00:00
END_DATE             01/01/2002
END_TIME             12:00:00
SWEEP_START          01/01
SWEEP_END            12/31
DRY_DAYS             5.000000
REPORT_STEP          00:05:00
WET_STEP             01:00:00
DRY_STEP             23:00:00
ROUTING_STEP         0:05:00 

INERTIAL_DAMPING     NONE
NORMAL_FLOW_LIMITED  BOTH
FORCE_MAIN_EQUATION  H-W
VARIABLE_STEP        0.75
LENGTHENING_STEP     0
MIN_SURFAREA         1.14
MAX_TRIALS           8
HEAD_TOLERANCE       0.0015
SYS_FLOW_TOL         5
LAT_FLOW_TOL         5
MINIMUM_STEP         0.5
THREADS              1

[EVAPORATION]
;;Data Source    Parameters
;;-------------- ----------------
CONSTANT         0.0
DRY_ONLY         NO

[JUNCTIONS]
;;Name           Elevation  MaxDepth   InitDepth  SurDepth   Aponded   
;;-------------- ---------- ---------- ---------- ---------- ----------
10018            94.580000  2.920000   0.000000   0.000000   0.000000  
10019            92.650000  2.850000   0.000000   0.000000   0.000000  
10020            91.030000  0.970000   0.000000   0.000000   0.000000  
10021            97.020000  0.480000   0.000000   0.000000   0.000000  
10029            108.230000 2.150000   0.000000   0.000000   0.000000  
10030            72.502317  1.997683   0.000000   0.000000   0.000000  
10044            70.774000  1.726000   0.000000   0.000000   0.000000  
10045            53.758000  1.325142   0.000000   0.000000   0.000000  
10089            126.137000 6.779808   0.000000   0.000000   0.000000  
10249            116.561894 2.438107   0.000000   0.000000   0.000000  
10250            116.097634 2.902366   0.000000   0.000000   0.000000  
10251            117.258000 1.742000   0.000000   0.000000   0.000000  
10256            115.503000 2.497000   0.000000   0.000000   0.000000  
10262            114.671000 2.198846   0.000000   0.000000   0.000000  
10272            116.426000 2.150000   0.000000   0.000000   0.000000  
10273            116.284000 1.216000   0.000000   0.000000   0.000000  
10274            116.339000 1.161000   0.000000   0.000000   0.000000  
10278            116.056000 0.444000   0.000000   0.000000   0.000000  
10310            93.850000  2.650000   0.000000   0.000000   0.000000  
10311            93.330000  1.670000   0.000000   0.000000   0.000000  
10312            92.250000  1.250000   0.000000   0.000000   0.000000  
10313            93.050000  1.950000   0.000000   0.000000   0.000000  
10315            92.790000  2.150000   0.000000   0.000000   0.000000  
10316            90.890000  3.768712   0.000000   0.000000   0.000000  
10318            94.170000  0.830000   0.000000   0.000000   0.000000  
10319            94.020000  2.983875   0.000000   0.000000   0.000000  
10320            93.810000  2.190000   0.000000   0.000000   0.000000  
10321            91.440000  2.560000   0.000000   0.000000   0.000000  
10322            91.320000  2.680000   0.000000   0.000000   0.000000  
10324            91.607788  2.200012   0.000000   0.000000   0.000000  
10329            59.733000  3.469266   0.000000   0.000000   0.000000  
10340            109.640000 3.970000   0.000000   0.000000   0.000000  
10341            108.900000 6.794643   0.000000   0.000000   0.000000  
10342            109.300000 3.700000   0.000000   0.000000   0.000000  
1036             78.220000  1.749487   0.000000   0.000000   0.000000  
1039             67.330000  2.181507   0.000000   0.000000   0.000000  
10399            161.352000 1.148000   0.000000   0.000000   0.000000  
1040             65.900000  2.632035   0.000000   0.000000   0.000000  
10400            162.573000 2.894158   0.000000   0.000000   0.000000  
10401            164.953000 3.547000   0.000000   0.000000   0.000000  
10402            163.163000 3.837000   0.000000   0.000000   0.000000  
10404            97.498446  1.501554   0.000000   0.000000   0.000000  
10405            97.486772  1.513228   0.000000   0.000000   0.000000  
10406            97.377983  2.000000   0.000000   0.000000   0.000000  
10407            78.575000  2.063829   0.000000   0.000000   0.000000  
1042             55.894000  1.606000   0.000000   0.000000   0.000000  
10438            112.329957 2.000000   0.000000   0.000000   0.000000  
10439            112.155442 2.099958   0.000000   0.000000   0.000000  
1045             85.520000  2.150000   0.000000   0.000000   0.000000  
1046             59.674000  4.136340   0.000000   0.000000   0.000000  
1047             73.760000  2.150000   0.000000   0.000000   0.000000  
10525            91.868700  2.131300   0.000000   0.000000   0.000000  
10625            64.053000  3.447000   0.000000   0.000000   0.000000  
10626            61.861000  3.620313   0.000000   0.000000   0.000000  
10627            59.121000  1.879000   0.000000   0.000000   0.000000  
10628            58.060000  2.440000   0.000000   0.000000   0.000000  
10629            56.944000  2.687659   0.000000   0.000000   0.000000  
10630            56.745000  2.750373   0.000000   0.000000   0.000000  
10631            67.059419  0.440581   0.000000   0.000000   0.000000  
10632            58.691000  0.309000   0.000000   0.000000   0.000000  
10633            65.877000  2.965670   0.000000   0.000000   0.000000  
10639            65.384000  2.733821   0.000000   0.000000   0.000000  
10640            119.670000 3.079535   0.000000   0.000000   0.000000  
10641            114.940000 1.560000   0.000000   0.000000   0.000000  
10642            120.680000 2.210000   0.000000   0.000000   0.000000  
10643            121.044973 2.955027   0.000000   0.000000   0.000000  
1066             56.251000  1.749000   0.000000   0.000000   0.000000  
1067             63.940000  5.707000   0.000000   0.000000   0.000000  
1068             73.761000  1.063024   0.000000   0.000000   0.000000  
1069             69.070000  1.430000   0.000000   0.000000   0.000000  
10697            104.750000 2.250000   0.000000   0.000000   0.000000  
10698            104.380000 2.214668   0.000000   0.000000   0.000000  
1070             83.210000  2.200000   0.000000   0.000000   0.000000  
1071             84.063000  4.948923   0.000000   0.000000   0.000000  
10734            173.737000 2.150000   0.000000   0.000000   0.000000  
10735            98.331091  8.168909   0.000000   0.000000   0.000000  
10739            143.755000 8.015000   0.000000   0.000000   0.000000  
10740            164.628375 2.000000   0.000000   0.000000   0.000000  
10741            163.089005 2.000000   0.000000   0.000000   0.000000  
10742            161.214844 2.000000   0.000000   0.000000   0.000000  
10743            161.068399 2.000000   0.000000   0.000000   0.000000  
10744            99.685000  2.150000   0.000000   0.000000   0.000000  
10757            99.500000  0.442920   0.000000   0.000000   0.000000  
10758            81.050000  2.450000   0.000000   0.000000   0.000000  
10766            7.500000   0.500000   0.000000   0.000000   0.000000  
10768            161.348000 2.505000   0.000000   0.000000   0.000000  
10769            160.050000 2.150000   0.000000   0.000000   0.000000  
10770            156.818000 2.099715   0.000000   0.000000   0.000000  
10771            161.650000 0.850000   0.000000   0.000000   0.000000  
10772            156.500000 2.960000   0.000000   0.000000   0.000000  
10773            164.850000 1.285593   0.000000   0.000000   0.000000  
10794            95.800000  2.150000   0.000000   0.000000   0.000000  
10795            88.630000  2.200000   0.000000   0.000000   0.000000  
10796            82.500000  2.200000   0.000000   0.000000   0.000000  
10797            71.180000  1.225819   0.000000   0.000000   0.000000  
10798            74.680000  2.200000   0.000000   0.000000   0.000000  
10799            70.360000  1.140000   0.000000   0.000000   0.000000  
10806            88.728000  2.000000   0.000000   0.000000   0.000000  
10807            88.080000  2.444600   0.000000   0.000000   0.000000  
10808            87.590000  2.910000   0.000000   0.000000   0.000000  
10809            85.010000  1.490000   0.000000   0.000000   0.000000  
10811            80.590000  3.193679   0.000000   0.000000   0.000000  
10812            81.670000  3.223485   0.000000   0.000000   0.000000  
10814            81.060000  1.940000   0.000000   0.000000   0.000000  
10817            88.960000  2.581493   0.000000   0.000000   0.000000  
10818            87.050000  3.450000   0.000000   0.000000   0.000000  
10819            85.710000  1.835201   0.000000   0.000000   0.000000  
10820            81.810000  2.990547   0.000000   0.000000   0.000000  
10821            94.840000  2.200000   0.000000   0.000000   0.000000  
10837            61.130000  3.142159   0.000000   0.000000   0.000000  
10850            80.500000  2.150000   0.000000   0.000000   0.000000  
10851            79.600000  2.000000   0.000000   0.000000   0.000000  
10852            12.818589  1.002038   0.000000   0.000000   0.000000  
10853            79.923000  4.577000   0.000000   0.000000   0.000000  
10854            81.311000  2.300000   0.000000   0.000000   0.000000  
10856            102.638000 3.013647   0.000000   0.000000   0.000000  
10857            123.493000 2.200000   0.000000   0.000000   0.000000  
10858            63.500000  3.000000   0.000000   0.000000   0.000000  
10860            103.544837 3.455163   0.000000   0.000000   0.000000  
10862            15.650000  1.778399   0.000000   0.000000   0.000000  
10865            63.800000  2.200000   0.000000   0.000000   0.000000  
10867            129.270000 3.583695   0.000000   0.000000   0.000000  
10871            115.920000 3.580000   0.000000   0.000000   0.000000  
10879            25.000000  4.000000   0.000000   0.000000   0.000000  
10883            109.902000 3.598000   0.000000   0.000000   0.000000  
10884            115.602000 1.000000   0.000000   0.000000   0.000000  
10885            107.730000 3.270000   0.000000   0.000000   0.000000  
10891            51.396603  1.603397   0.000000   0.000000   0.000000  
10895            111.928712 2.199988   0.000000   0.000000   0.000000  
10901            94.337354  1.162646   0.000000   0.000000   0.000000  
10902            94.280799  1.700175   0.000000   0.000000   0.000000  
10903            94.868044  1.131956   0.000000   0.000000   0.000000  
10904            94.880277  1.119723   0.000000   0.000000   0.000000  
10905            46.610000  2.637505   0.000000   0.000000   0.000000  
10907            102.712086 3.389759   0.000000   0.000000   0.000000  
10915            115.355935 2.000000   0.000000   0.000000   0.000000  
10917            72.556000  2.444000   0.000000   0.000000   0.000000  
10918            73.403000  2.639240   0.000000   0.000000   0.000000  
10921            122.280375 2.150025   0.000000   0.000000   0.000000  
10922            122.133364 2.000000   0.000000   0.000000   0.000000  
10924            90.704000  3.796000   0.000000   0.000000   0.000000  
10927            86.589254  0.910746   0.000000   0.000000   0.000000  
10928            87.463443  2.036557   0.000000   0.000000   0.000000  
10935            101.290000 1.301316   0.000000   0.000000   0.000000  
10940            111.700000 2.300000   0.000000   0.000000   0.000000  
10945            121.413000 2.150000   0.000000   0.000000   0.000000  
10947            106.989550 6.566380   0.000000   0.000000   0.000000  
10954            119.200000 2.850000   0.000000   0.000000   0.000000  
10955            120.550000 1.290000   0.000000   0.000000   0.000000  
10956            120.140000 1.910000   0.000000   0.000000   0.000000  
10961            83.838000  4.514885   0.000000   0.000000   0.000000  
10962            79.025000  1.849414   0.000000   0.000000   0.000000  
10968            118.872000 1.933737   0.000000   0.000000   0.000000  
10970            109.400000 3.414774   0.000000   0.000000   0.000000  
10974            105.960000 5.821644   0.000000   0.000000   0.000000  
1098             95.158920  1.696332   0.000000   0.000000   0.000000  
10982            116.690000 5.295316   0.000000   0.000000   0.000000  
11032            90.380000  2.200000   0.000000   0.000000   0.000000  
11033            95.732000  0.768000   0.000000   0.000000   0.000000  
11034            98.047000  5.728143   0.000000   0.000000   0.000000  
11035            97.275000  2.200000   0.000000   0.000000   0.000000  
11036            98.661000  0.357015   0.000000   0.000000   0.000000  
11037            100.984000 3.318565   0.000000   0.000000   0.000000  
11038            102.216000 1.284000   0.000000   0.000000   0.000000  
11039            100.722000 2.463972   0.000000   0.000000   0.000000  
11040            94.159000  0.768899   0.000000   0.000000   0.000000  
11041            90.156000  0.344000   0.000000   0.000000   0.000000  
11042            90.914000  0.586000   0.000000   0.000000   0.000000  
11045            95.010000  1.990000   0.000000   0.000000   0.000000  
11046            95.440000  1.560000   0.000000   0.000000   0.000000  
1109             95.990000  2.510000   0.000000   0.000000   0.000000  
1113             95.040000  0.460000   0.000000   0.000000   0.000000  
1114             94.340000  3.160000   0.000000   0.000000   0.000000  
1115             96.800000  2.241243   0.000000   0.000000   0.000000  
1116             88.538000  1.212331   0.000000   0.000000   0.000000  
1117             82.472000  1.528000   0.000000   0.000000   0.000000  
1118             85.648000  2.150000   0.000000   0.000000   0.000000  
1119             80.080000  1.638203   0.000000   0.000000   0.000000  
1120             80.100000  1.162591   0.000000   0.000000   0.000000  
1121             74.996000  2.004000   0.000000   0.000000   0.000000  
1122             73.270000  2.164487   0.000000   0.000000   0.000000  
1123             73.460000  2.040000   0.000000   0.000000   0.000000  
1124             63.648000  2.150000   0.000000   0.000000   0.000000  
1125             75.041000  0.267190   0.000000   0.000000   0.000000  
1126             73.180000  1.820000   0.000000   0.000000   0.000000  
1127             73.745000  1.755000   0.000000   0.000000   0.000000  
1128             70.115000  3.149868   0.000000   0.000000   0.000000  
1129             105.220000 0.937326   0.000000   0.000000   0.000000  
1130             106.800000 0.316604   0.000000   0.000000   0.000000  
1131             110.480000 2.000000   0.000000   0.000000   0.000000  
1132             97.520000  2.667329   0.000000   0.000000   0.000000  
1133             95.702000  2.798000   0.000000   0.000000   0.000000  
1134             82.906000  2.094000   0.000000   0.000000   0.000000  
1135             93.750000  2.150000   0.000000   0.000000   0.000000  
1136             83.150000  3.125940   0.000000   0.000000   0.000000  
1137             74.750000  2.150000   0.000000   0.000000   0.000000  
1138             78.580000  1.920000   0.000000   0.000000   0.000000  
1139             74.210000  1.804887   0.000000   0.000000   0.000000  
1140             78.330000  0.567820   0.000000   0.000000   0.000000  
1141             81.810000  0.542611   0.000000   0.000000   0.000000  
1142             108.050000 2.150000   0.000000   0.000000   0.000000  
1143             96.440000  2.150000   0.000000   0.000000   0.000000  
1144             86.080000  1.420000   0.000000   0.000000   0.000000  
1145             96.500000  2.150000   0.000000   0.000000   0.000000  
1146             203.790000 4.308611   0.000000   0.000000   0.000000  
1147             110.134000 2.200000   0.000000   0.000000   0.000000  
1148             142.370000 2.150000   0.000000   0.000000   0.000000  
1149             78.700000  1.150253   0.000000   0.000000   0.000000  
1150             96.731000  2.589709   0.000000   0.000000   0.000000  
1151             88.900000  2.600000   0.000000   0.000000   0.000000  
1152             96.401000  1.099000   0.000000   0.000000   0.000000  
1153             95.470000  2.150000   0.000000   0.000000   0.000000  
1154             89.262000  2.150000   0.000000   0.000000   0.000000  
1155             81.798000  1.142203   0.000000   0.000000   0.000000  
1156             100.922000 2.200000   0.000000   0.000000   0.000000  
1157             99.850000  2.553793   0.000000   0.000000   0.000000  
1158             100.760000 1.595735   0.000000   0.000000   0.000000  
1159             103.023000 2.477000   0.000000   0.000000   0.000000  
1160             103.728000 2.063907   0.000000   0.000000   0.000000  
1161             109.620000 1.880000   0.000000   0.000000   0.000000  
1162             124.120000 2.832427   0.000000   0.000000   0.000000  
1163             121.660000 2.196197   0.000000   0.000000   0.000000  
1164             144.280000 2.150000   0.000000   0.000000   0.000000  
1165             143.660000 2.150000   0.000000   0.000000   0.000000  
1166             149.510000 1.790114   0.000000   0.000000   0.000000  
1167             169.358000 2.000000   0.000000   0.000000   0.000000  
1168             137.122000 5.120640   0.000000   0.000000   0.000000  
1169             126.300000 1.972288   0.000000   0.000000   0.000000  
1170             148.890000 0.305786   0.000000   0.000000   0.000000  
1171             78.333000  3.167000   0.000000   0.000000   0.000000  
1180             81.970000  0.940982   0.000000   0.000000   0.000000  
1181             183.860000 1.129345   0.000000   0.000000   0.000000  
1182             172.260000 2.000000   0.000000   0.000000   0.000000  
1183             176.265000 6.033910   0.000000   0.000000   0.000000  
1194             194.060000 2.200000   0.000000   0.000000   0.000000  
1195             201.598000 2.000000   0.000000   0.000000   0.000000  
1196             215.701000 9.056361   0.000000   0.000000   0.000000  
1197             220.035000 5.396069   0.000000   0.000000   0.000000  
1198             218.987000 2.200000   0.000000   0.000000   0.000000  
1199             217.932000 4.352168   0.000000   0.000000   0.000000  
1302             106.890000 1.110000   0.000000   0.000000   0.000000  
1309             106.530000 2.023185   0.000000   0.000000   0.000000  
1310             105.960000 1.987983   0.000000   0.000000   0.000000  
1311             104.870000 8.118253   0.000000   0.000000   0.000000  
1312             102.900000 3.491561   0.000000   0.000000   0.000000  
1313             104.040000 1.381486   0.000000   0.000000   0.000000  
1322             58.640000  4.860000   0.000000   0.000000   0.000000  
1323             119.780000 4.068407   0.000000   0.000000   0.000000  
1324             127.310000 2.190000   0.000000   0.000000   0.000000  
1325             102.931000 2.569000   0.000000   0.000000   0.000000  
1339             83.132000  1.368000   0.000000   0.000000   0.000000  
1340             82.915000  2.085000   0.000000   0.000000   0.000000  
1341             81.125000  3.809788   0.000000   0.000000   0.000000  
1342             83.262000  1.238000   0.000000   0.000000   0.000000  
1346             161.060000 2.303794   0.000000   0.000000   0.000000  
1349             109.930000 4.070000   0.000000   0.000000   0.000000  
1350             109.310000 8.349000   0.000000   0.000000   0.000000  
1350A            109.450000 2.200000   0.000000   0.000000   0.000000  
1351             105.872000 0.628000   0.000000   0.000000   0.000000  
1362             76.112000  1.568000   0.000000   0.000000   0.000000  
1382             124.371232 2.000000   0.000000   0.000000   0.000000  
1383             121.210000 4.534345   0.000000   0.000000   0.000000  
1392             104.925000 5.276496   0.000000   0.000000   0.000000  
1394             111.952000 2.432472   0.000000   0.000000   0.000000  
1395             114.887000 2.113000   0.000000   0.000000   0.000000  
1406             109.574000 3.926000   0.000000   0.000000   0.000000  
1407             133.073000 4.682850   0.000000   0.000000   0.000000  
1408             126.713000 3.667773   0.000000   0.000000   0.000000  
1409             125.750000 2.599656   0.000000   0.000000   0.000000  
1410             112.590000 3.910000   0.000000   0.000000   0.000000  
1411             116.610000 2.890000   0.000000   0.000000   0.000000  
1412             98.620000  1.410163   0.000000   0.000000   0.000000  
1413             95.272000  2.475614   0.000000   0.000000   0.000000  
1414             95.924004  4.281466   0.000000   0.000000   0.000000  
1415             93.377000  2.190833   0.000000   0.000000   0.000000  
1419             87.147000  3.353000   0.000000   0.000000   0.000000  
1420             79.595000  1.519712   0.000000   0.000000   0.000000  
1421             85.844000  1.771188   0.000000   0.000000   0.000000  
1422             97.610000  1.954366   0.000000   0.000000   0.000000  
1424             104.149000 1.573112   0.000000   0.000000   0.000000  
1425             111.440000 1.560000   0.000000   0.000000   0.000000  
1426             111.950000 3.050000   0.000000   0.000000   0.000000  
1427             100.959783 1.540217   0.000000   0.000000   0.000000  
1428             101.981000 2.519000   0.000000   0.000000   0.000000  
1433             99.636000  2.364000   0.000000   0.000000   0.000000  
1434             99.119000  3.298886   0.000000   0.000000   0.000000  
1435             98.675000  0.815183   0.000000   0.000000   0.000000  
18               82.335000  3.165000   0.000000   0.000000   0.000000  
19               83.761000  2.239000   0.000000   0.000000   0.000000  
2                104.990000 2.010000   0.000000   0.000000   0.000000  
20               171.219000 2.000000   0.000000   0.000000   0.000000  
21               104.753000 1.747000   0.000000   0.000000   0.000000  
2117             110.167000 0.852405   0.000000   0.000000   0.000000  
2118             110.410000 2.434846   0.000000   0.000000   0.000000  
2119             112.258000 2.742000   0.000000   0.000000   0.000000  
2179             134.169000 2.831000   0.000000   0.000000   0.000000  
2180             132.660000 5.840000   0.000000   0.000000   0.000000  
2181             132.210000 5.290000   0.000000   0.000000   0.000000  
2182             131.730000 2.089342   0.000000   0.000000   0.000000  
2183             130.990000 4.277977   0.000000   0.000000   0.000000  
2184             130.285000 3.215000   0.000000   0.000000   0.000000  
2185             129.526000 4.110710   0.000000   0.000000   0.000000  
2186             127.780000 2.720000   0.000000   0.000000   0.000000  
2187             130.160000 6.840000   0.000000   0.000000   0.000000  
2188             132.940000 0.560000   0.000000   0.000000   0.000000  
2189             128.650000 0.850000   0.000000   0.000000   0.000000  
219              134.179000 2.821000   0.000000   0.000000   0.000000  
2190             133.130000 2.398626   0.000000   0.000000   0.000000  
2191             132.960000 4.040000   0.000000   0.000000   0.000000  
2192             133.270000 2.230000   0.000000   0.000000   0.000000  
2193             133.580000 2.420000   0.000000   0.000000   0.000000  
2194             125.310000 4.690000   0.000000   0.000000   0.000000  
2195             124.080000 5.681270   0.000000   0.000000   0.000000  
2196             124.620000 2.380000   0.000000   0.000000   0.000000  
2197             124.790000 2.555459   0.000000   0.000000   0.000000  
2198             131.950000 5.550000   0.000000   0.000000   0.000000  
2199             128.000000 1.247441   0.000000   0.000000   0.000000  
22               106.441000 2.559000   0.000000   0.000000   0.000000  
220              130.400000 2.150000   0.000000   0.000000   0.000000  
2200             132.310000 3.190000   0.000000   0.000000   0.000000  
2201             122.110000 0.890000   0.000000   0.000000   0.000000  
2202             122.210000 3.987262   0.000000   0.000000   0.000000  
2203             122.690000 1.687614   0.000000   0.000000   0.000000  
2204             122.900000 2.100000   0.000000   0.000000   0.000000  
2205             128.070000 2.200000   0.000000   0.000000   0.000000  
2206             128.360000 2.640000   0.000000   0.000000   0.000000  
2207             108.730000 3.270000   0.000000   0.000000   0.000000  
2208             123.270000 7.730000   0.000000   0.000000   0.000000  
2209             106.890000 3.610000   0.000000   0.000000   0.000000  
221              136.000000 2.500000   0.000000   0.000000   0.000000  
2210             107.150000 7.350000   0.000000   0.000000   0.000000  
2211             108.520000 4.980000   0.000000   0.000000   0.000000  
2212             122.420000 2.035322   0.000000   0.000000   0.000000  
2213             115.780000 6.161639   0.000000   0.000000   0.000000  
2214             115.060000 2.200000   0.000000   0.000000   0.000000  
2215             106.320000 1.680000   0.000000   0.000000   0.000000  
2216             106.630000 1.370000   0.000000   0.000000   0.000000  
222              133.980000 3.595356   0.000000   0.000000   0.000000  
2230             121.938000 2.200000   0.000000   0.000000   0.000000  
2231             126.690000 0.264464   0.000000   0.000000   0.000000  
2232             125.191000 0.309000   0.000000   0.000000   0.000000  
2233             130.945000 2.200000   0.000000   0.000000   0.000000  
2234             124.750000 0.750000   0.000000   0.000000   0.000000  
2235             132.469000 2.000000   0.000000   0.000000   0.000000  
2236             127.940000 2.560000   0.000000   0.000000   0.000000  
2237             117.442000 3.058000   0.000000   0.000000   0.000000  
2238             117.863000 0.959170   0.000000   0.000000   0.000000  
2239             121.243000 0.257000   0.000000   0.000000   0.000000  
2240             118.372000 1.628000   0.000000   0.000000   0.000000  
2241             118.738000 1.779163   0.000000   0.000000   0.000000  
2242             111.622000 1.149208   0.000000   0.000000   0.000000  
2243             110.955000 5.045000   0.000000   0.000000   0.000000  
2244             114.151000 2.200000   0.000000   0.000000   0.000000  
2245             114.420000 4.319721   0.000000   0.000000   0.000000  
2246             114.687000 4.218445   0.000000   0.000000   0.000000  
2247             110.840000 6.160000   0.000000   0.000000   0.000000  
2248             113.380000 1.995776   0.000000   0.000000   0.000000  
2249             114.300000 1.488602   0.000000   0.000000   0.000000  
225              128.016000 2.150000   0.000000   0.000000   0.000000  
2250             114.870000 3.130000   0.000000   0.000000   0.000000  
2251             115.240000 2.760000   0.000000   0.000000   0.000000  
2252             114.690000 2.310000   0.000000   0.000000   0.000000  
2253             115.160000 3.840000   0.000000   0.000000   0.000000  
2254             112.578000 2.200000   0.000000   0.000000   0.000000  
2255             113.029000 3.585530   0.000000   0.000000   0.000000  
2256             118.147000 0.853000   0.000000   0.000000   0.000000  
2257             112.240000 2.901884   0.000000   0.000000   0.000000  
2258             112.276000 3.224000   0.000000   0.000000   0.000000  
2259             121.585000 1.915000   0.000000   0.000000   0.000000  
226              110.800000 2.150000   0.000000   0.000000   0.000000  
2260             121.890000 2.000000   0.000000   0.000000   0.000000  
2261             117.052000 2.013000   0.000000   0.000000   0.000000  
2262             113.620000 2.200000   0.000000   0.000000   0.000000  
2263             112.803000 2.200000   0.000000   0.000000   0.000000  
2264             100.764000 1.736000   0.000000   0.000000   0.000000  
2265             105.973000 0.527000   0.000000   0.000000   0.000000  
2266             103.754000 1.746000   0.000000   0.000000   0.000000  
2267             103.275000 4.225000   0.000000   0.000000   0.000000  
2268             102.644000 3.551803   0.000000   0.000000   0.000000  
2269             102.300000 1.537888   0.000000   0.000000   0.000000  
227              109.606000 2.052737   0.000000   0.000000   0.000000  
2270             102.971000 2.029000   0.000000   0.000000   0.000000  
2271             122.505000 2.995000   0.000000   0.000000   0.000000  
2272             124.636000 0.864000   0.000000   0.000000   0.000000  
2273             120.500000 2.499000   0.000000   0.000000   0.000000  
2274             120.134000 2.866000   0.000000   0.000000   0.000000  
2275             120.762000 4.418000   0.000000   0.000000   0.000000  
2276             121.210000 4.806453   0.000000   0.000000   0.000000  
2277             117.695000 0.805000   0.000000   0.000000   0.000000  
2278             103.710000 2.779048   0.000000   0.000000   0.000000  
2279             106.022000 2.478000   0.000000   0.000000   0.000000  
228              100.889000 1.792853   0.000000   0.000000   0.000000  
2280             110.956000 0.544000   0.000000   0.000000   0.000000  
2281             110.514000 2.200000   0.000000   0.000000   0.000000  
2282             109.734000 2.766000   0.000000   0.000000   0.000000  
2283             114.894000 2.606000   0.000000   0.000000   0.000000  
2284             119.256000 2.966507   0.000000   0.000000   0.000000  
2285             123.456000 2.200000   0.000000   0.000000   0.000000  
2286             119.756000 1.244000   0.000000   0.000000   0.000000  