[TITLE]
;;Project Title/Notes
THE PONDS
Green-Ampt Silty Sand
Volume Based Heytographs

[OPTIONS]
;;Option             Value
FLOW_UNITS           LPS
INFILTRATION         GREEN_AMPT
FLOW_ROUTING         DYNWAVE
LINK_OFFSETS         DEPTH
MIN_SLOPE            0
ALLOW_PONDING        NO
SKIP_STEADY_STATE    NO

START_DATE           04/28/2010
START_TIME           00:00:00
REPORT_START_DATE    04/28/2010
REPORT_START_TIME    00:00:00
END_DATE             04/28/2010
END_TIME             05:00:00
SWEEP_START          01/01
SWEEP_END            12/31
DRY_DAYS             0
REPORT_STEP          00:00:10
WET_STEP             00:05:00
DRY_STEP             00:05:00
ROUTING_STEP         0:00:10 

INERTIAL_DAMPING     NONE
NORMAL_FLOW_LIMITED  BOTH
FORCE_MAIN_EQUATION  H-W
VARIABLE_STEP        0.75
LENGTHENING_STEP     0
MIN_SURFAREA         1.14
MAX_TRIALS           8
HEAD_TOLERANCE       0.0015
SYS_FLOW_TOL         5
LAT_FLOW_TOL         5
MINIMUM_STEP         0.5
THREADS              1

[EVAPORATION]
;;Data Source    Parameters
;;-------------- ----------------
CONSTANT         0.0
DRY_ONLY         NO

[RAINGAGES]
;;Name           Format    Interval SCF      Source    
;;-------------- --------- ------ ------ ----------
RG1              VOLUME    0:05     1.0      TIMESERIES 5Y1Hr           

[SUBCATCHMENTS]
;;Name           Rain Gage        Outlet           Area     %Imperv  Width    %Slope   CurbLen  SnowPack        
;;-------------- ---------------- ---------------- -------- -------- -------- -------- -------- ----------------
1                RG1              j6               1.0675   40       213.5    10.5     0                        
2                RG1              j4               1.9320   40       411      8        0                        
3                RG1              j5               1.9250   40       331      14       0                        
4                RG1              j7               2.9013   40       483      16       0                        
5                RG1              j8               2.7743   40       346      6        0                        
6                RG1              j11              2.0315   40       338      5        0                        
7                RG1              j9               3.8382   40       462      20       0                        
8                RG1              mairpond         1.8915   50       259      20       0                        
9                RG1              j14              0.7369   40       122      4        0                        
10               RG1              j10              4.1362   40       413      14       0                        
11               RG1              j22              3.3805   40       563      3        0                        
12               RG1              j15              7.4624   40       746      11       0                        
13               RG1              j2               3.8783   40       646      12       0                        
14               RG1              j12              3.5249   35       440      15       0                        
15               RG1              j13              6.2782   35       600      14       0                        
16               RG1              crawfordslough   2.0434   50       335      20       0                        
17               RG1              j25              3.563    40       400      12       0                        
18               RG1              47               2.6495   25       264      28       0                        
20               RG1              j20              2.535    40       298      13       0                        
21               RG1              j19              1.4932   40       213      3        0                        
22               RG1              j27              2.9466   40       382      8        0                        
23               RG1              j24              1.4726   40       294      2        0                        
24               RG1              j23              1.0021   40       286      15       0                        
28               RG1              52               1.9716   25       197      25       0                        
29               RG1              j55              5.8392   35       583      8        0                        
30               RG1              j47              4.5640   34       507      16       0                        
31               RG1              j45              4.5950   34       306      26       0                        
32               RG1              j42              6.3596   34       706      15       0                        
33               RG1              j51              1.9527   40       216      17       0                        
34               RG1              j48              4.3410   40       394      26       0                        
35               RG1              j50              2.2147   40       233      24       0                        
36               RG1              j53              1.9887   40       497      22       0                        
37               RG1              SouthCrestPond   1.5772   25       197      30       0                        
38               RG1              j56              4.4384   35       634      6        0                        
39               RG1              j37              4.8197   60       370      12       0                        
40               RG1              j38              3.2379   70       360      6        0                        
41               RG1              j41              2.6990   85       199      4        0                        
42               RG1              j40              2.2738   25       151      9        0                        
43               RG1              j39              1.6893   50       168      13       0                        
44               RG1              j61              1.9910   40       242      4        0                        
45               RG1              j17              6.1729   30       385      3        0                        
46               RG1              j61              1.5895   50       122      13       0                        
47               RG1              j29              .3482    40       174      7        0                        
48               RG1              j28              .2695    40       67       2        0                        
49               RG1              j30              .6859    40       228      2        0                        
50               RG1              j24              .5020    40       167      2        0                        
51               RG1              j31              1.2671   40       158      .5       0                        
52               RG1              j32              .9245    40       260      3        0                        
53               RG1              j33              .7164    40       238      7        0                        
54               RG1              j34              .6550    40       163      9        0                        
SC1              RG1              Jacksmithlake    6.94     61       466      25       0                        
SC4              rg1              j62              1.57     51       174      30       0                        
SC7              RG1              j64              1        80       139      9        0                        
SC8              RG1              j67              .917     80       180      7        0                        
SC9              RG1              j66              .153     80       180      6.24     0                        
SC10             RG1              j65              .149     80       180      7.76     0                        
SC11             RG1              j63              .43      80       180      9.22     0                        
SC12             RG1              j68              .88      80       180      9        0                        
SC16             RG1              r6               1.71     25       190      12       0                        

[SUBAREAS]
;;Subcatchment   N-Imperv   N-Perv     S-Imperv   S-Perv     PctZero    RouteTo    PctRouted 
;;-------------- ---------- ---------- ---------- ---------- ---------- ---------- ----------
1                .014       .35        2          5          25         OUTLET    
2                .014       .35        2          5          25         OUTLET    
3                .014       .35        2          5          25         OUTLET    
4                .014       .35        2          5          25         OUTLET    
5                .014       .35        2          5          25         OUTLET    
6                .014       .35        2          5          25         OUTLET    
7                .014       .35        2          5          25         OUTLET    
8                .014       .35        2          5          25         OUTLET    
9                .014       .35        2          5          25         OUTLET    
10               .014       .35        2          5          25         OUTLET    
11               .014       .35        2          5          25         OUTLET    
12               .014       .35        2          5          25         OUTLET    
13               .014       .35        2          5          25         OUTLET    
14               .014       .35        2          5          25         OUTLET    
15               .014       .35        2          5          25         OUTLET    
16               .014       .35        2          5          25         OUTLET    
17               .014       .35        2          5          25         OUTLET    
18               .014       .35        2          5          25         OUTLET    
20               .014       .35        2          5          25         OUTLET    
21               .014       .35        2          5          25         OUTLET    
22               .014       .35        2          5          25         OUTLET    
23               .014       .35        2          5          25         OUTLET    
24               .014       .35        2          5          25         OUTLET    
28               .014       .35        2          5          25         OUTLET    
29               .014       .35        2          5          25         OUTLET    
30               .014       .35        2          5          25         OUTLET    
31               .014       .35        2          5          25         OUTLET    
32               .014       .35        2          5          25         OUTLET    
33               .014       .35        2          5          25         OUTLET    
34               .014       .35        2          5          25         OUTLET    
35               .014       .35        2          5          25         OUTLET    
36               .014       .35        2          5          25         OUTLET    
37               .014       .35        2          5          25         OUTLET    
38               .014       .35        2          5          25         OUTLET    
39               .014       .35        2          5          25         OUTLET    
40               .014       .35        2          5          25         OUTLET    
41               .014       .35        2          5          25         OUTLET    
42               .014       .35        2          5          25         OUTLET    
43               .014       .35        2          5          25         OUTLET    
44               .014       .35        2          5          25         OUTLET    
45               .014       .35        2          5          25         OUTLET    
46               .014       .35        2          5          25         OUTLET    
47               .014       .35        2          5          25         OUTLET    
48               .014       .35        2          5          25         OUTLET    
49               .014       .35        2          5          25         OUTLET    
50               .014       .35        2          5          25         OUTLET    
51               .014       .35        2          5          25         OUTLET    
52               .014       .35        2          5          25         OUTLET    
53               .014       .35        2          5          25         OUTLET    
54               .014       .35        2          5          25         OUTLET    
SC1              .01        .35        0          5          100        OUTLET    
SC4              .014       .35        2          5          25         OUTLET    
SC7              .014       .35        2          5          25         OUTLET    
SC8              .014       .35        2          5          25         OUTLET    
SC9              .014       .35        2          5          25         OUTLET    
SC10             .014       .35        2          5          25         OUTLET    
SC11             .014       .35        2          5          25         OUTLET    
SC12             .014       .35        2          5          25         OUTLET    
SC16             .014       .35        2          5          25         OUTLET    

[INFILTRATION]
;;Subcatchment   Suction    Ksat       IMD       
;;-------------- ---------- ---------- ----------
1                61.3       59.8       .437      
2                61.3       59.8       .437      
3                61.3       59.8       .437      
4                61.3       59.8       .437      
5                61.3       59.8       .437      
6                61.3       59.8       .437      
7                61.3       59.8       .437      
8                61.3       59.8       .437      
9                61.3       59.8       .437      
10               61.3       59.8       .437      
11               61.3       59.8       .437      
12               61.3       59.8       .437      
13               61.3       59.8       .437      
14               61.3       59.8       .437      
15               61.3       59.8       .437      
16               61.3       59.8       .437      
17               61.3       59.8       .437      
18               61.3       59.8       .437      
20               61.3       59.8       .437      
21               61.3       59.8       .437      
22               61.3       59.8       .437      
23               61.3       59.8       .437      
24               61.3       59.8       .437      
28               61.3       59.8       .437      
29               61.3       59.8       .437      
30               61.3       59.8       .437      
31               61.3       59.8       .437      
32               61.3       59.8       .437      
33               61.3       59.8       .437      
34               61.3       59.8       .437      
35               61.3       59.8       .437      
36               61.3       59.8       .437      
37               61.3       59.8       .437      
38               61.3       59.8       .437      
39               61.3       59.8       .437      
40               61.3       59.8       .437      
41               61.3       59.8       .437      
42               61.3       59.8       .437      
43               61.3       59.8       .437      
44               61.3       59.8       .437      
45               61.3       59.8       .437      
46               61.3       59.8       .437      
47               61.3       59.8       .437      
48               61.3       59.8       .437      
49               61.3       59.8       .437      
50               61.3       59.8       .437      
51               61.3       59.8       .437      
52               61.3       59.8       .437      
53               61.3       59.8       .437      
54               61.3       59.8       .437      
SC1              61.3       59.8       .437      
SC4              61.3       59.8       .437      
SC7              61.3       59.8       .437      
SC8              61.3       59.8       .437      
SC9              61.3       59.8       .437      
SC10             61.3       59.8       .437      
SC11             61.3       59.8       .437      
SC12             61.3       59.8       .437      
SC16             61.3       59.8       .437      

[JUNCTIONS]
;;Name           Elevation  MaxDepth   InitDepth  SurDepth   Aponded   
;;-------------- ---------- ---------- ---------- ---------- ----------
J10              570        1.2        0          0          0         
J11              575        1.2        0          0          0         
J12              563        1.2        0          0          0         
J13              552        1.2        0          0          0         
J14              553        1.2        0          0          0         
J15              525        1.37       0          0          0         
J16              504        1.37       0          0          0         
J17              491        1.2        0          0          0         
J19              550        1.2        0          0          0         
J2               575        1.2        0          0          0         
J20              548        1.2        0          0          0         
J21              540        1.2        0          0          0         
J22              528        1.37       0          0          0         
J23              530        1.37       0          0          0         
J24              516.1      1.37       0          0          0         
J25              540        1.2        0          0          0         
J26              519        1.37       0          0          0         
J27              523        1.37       0          0          0         
J28              519.7      1.2        0          0          0         
J29              521        1.2        0          0          0         
J3               572.3      1.2        0          0          0         
J30              517.8      1.37       0          0          0         
J31              513.9      1.37       0          0          0         
J32              514        1.2        0          0          0         
J33              509.6      1.2        0          0          0         
J34              507.7      1.2        0          0          0         
J35              499.8      1.27       0          0          0         
J37              510        1.37       0          0          0         
J38              512        1.37       0          0          0         
J39              498        1.2        0          0          0         
J4               588        1.2        0          0          0         
J40              486        1.37       0          0          0         
J41              500        1.2        0          0          0         
J42              645        1.2        0          0          0         
J43              630        1.2        0          0          0         
J44              626        1.2        0          0          0         
J45              638        1.2        0          0          0         
J46              607        1.37       0          0          0         
J47              625        1.2        0          0          0         
J48              595        1.37       0          0          0         
J49              580        1.37       0          0          0         
J5               570        1.37       0          0          0         
J50              565        1.37       0          0          0         
J51              603        1.2        0          0          0         
J52              560        1.37       0          0          0         
J53              570        1.2        0          0          0         
J54              545        1.2        0          0          0         
J55              577.1      1.2        0          0          0         
J56              541.05     1.2        0          0          0         
J57              523.89     1.2        0          0          0         
J58              548        1.2        0          0          0         
J59              538        1.2        0          0          0         
J6               589        1.2        0          0          0         
J60              535        1.2        0          0          0         
J61              496.4      1.27       0          0          0         
J62              515.3      1.2        0          0          0         
J63              478.2      1.37       0          0          0         
J64              437.44     1.37       0          0          0         
J65              490.92     1.2        0          0          0         
J66              495.19     1.2        0          0          0         
J67              498.62     1.37       0          0          0         
J68              454.26     1.37       0          0          0         
J7               571        1.37       0          0          0         
J70              476        1.37       0          0          0         
J74              512.       1.37       0          0          0         
J75              482.9      1.37       0          0          0         
J8               565        1.2        0          0          0         
J9               553        1.2        0          0          0         

[OUTFALLS]
;;Name           Elevation  Type       Stage Data       Gated    Route To        
;;-------------- ---------- ---------- ---------------- -------- ----------------
Out1             423        FREE                        NO                       
Out2             427.24     FREE                        NO                       

[STORAGE]
;;Name           Elev.    MaxDepth   InitDepth  Shape      Curve Name/Params            N/A      Fevap    Psi      Ksat     IMD     
;;-------------- -------- ---------- ----------- ---------- ---------------------------- -------- --------          -------- --------
CrawfordSlough   551.7    .3         0          TABULAR    CrawfordSlough               3700     0       
SeepageSpring    551.7    0.3        0          TABULAR    SeepageSpring                1800     0       
HillSpring       540.85   0.65       0          TABULAR    HillSpring                   2800     0       
JackSmithLake    572      1          0          TABULAR    JackSmithLake                34000    0       
SouthCrestPond   539      1          0          TABULAR    SouthCrestPond               3000     0       
MairPond         537.9    1.3        0          TABULAR    MairPond                     3275     0       
R6               426      1.1        0          TABULAR    LowerPond                    0        0       

[CONDUITS]
;;Name           From Node        To Node          Length     Roughness  InOffset   OutOffset  InitFlow   MaxFlow   
;;-------------- ---------------- ---------------- ---------- ---------- ---------- ---------- ---------- ----------
P1               J17              J75              85.45      .011       0          0          0          0         
P2               J2               J3               64.51      .011       0          0          0          0         
P3               J3               JackSmithLake    10         .011       0          0.500      0          0         
P4               J75              J70              144.32     .011       0          0          0          0         
P5               J56              J57              228.73     .011       0          0          0          0         
P6               J19              J21              116.69     .011       0          0          0          0         
P7               J20              J21              173.12     .011       0          0          0          0         
P8               SeepageSpring    CrawfordSlough   111.61     .011       0          0          0          0         
P9               J57              J62              107.47     .011       0          0          0          0         
P10              J58              J25              175.78     .011       0          0          0          0         
P11              J21              J23              105.39     .011       0          0          0          0         
P12              J59              J29              92.28      .011       0          0          0          0         
P13              J60              J22              93.53      .011       0          0          0          0         
P14              J41              J40              191.90     .011       0          0          0          0         
P15              J39              J40              109.13     .011       0          0          0          0         
P16              J35              J61              76.05      .011       0          0          0          0         
P17              J61              J17              87         .011       0          0          0          0         
P18              J64              Out2             213.39     .011       0          0          0          0         
P19              J65              J63              138        .011       0          0          0          0         
P20              J66              J65              55         .011       0          0          0          0         
P21              J67              J66              55         .011       0          0          0          0         
P22              J62              J67              170.16     .011       0          0          0          0         
P23              J68              J64              200        .011       0          0          0          0         
P24              J63              J68              266.39     .011       0          0          0          0         
P25              J40              J75              179        .011       0          0          0          0         
P26              J70              R6               147.47     .011       0          0          0          0         
P27              J74              J34              70.2       .011       0          0          0          0         
P52              J42              J43              197.11     .011       0          0          0          0         
P53              J43              J44              77.05      .011       0          0          0          0         
P54              J45              J44              171.66     .011       0          0          0          0         
P55              J47              J46              142.82     .011       0          0          0          0         
P56              J46              J48              240.49     .011       0          0          0          0         
P57              J44              J46              179.32     .011       0          0          0          0         
P58              J51              J49              193.01     .011       0          0          0          0         
P59              J48              J49              152.03     .011       0          0          0          0         
P60              J49              J50              149.21     .011       0          0          0          0         
P61              J50              J52              106.70     .011       0          0          0          0         
P62              J53              J52              165.22     .011       0          0          0          0         
P63              J52              J54              181.94     .011       0          0          0          0         
P64              J54              SouthCrestPond   40.23      .011       0          0          0          0         
P65              J27              J26              122.24     .011       0          0          0          0         
P66              J26              J30              120.03     .011       0          0          0          0         
P67              J28              J26              45.16      .011       0          0          0          0         
P68              J29              J30              63.69      .011       0          0          0          0         
P69              J30              J31              84.92      .011       0          0          0          0         
P70              J24              J31              136.71     .011       0          0          0          0         
P71              J31              J74              63.5       .011       0          0          0          0         
P72              J32              J33              41.74      .011       0          0          0          0         
P73              J33              J34              63.08      .011       0          0          0          0         
P74              J38              J37              176.38     .011       0          0          0          0         
P75              J37              J35              190.87     .011       0          0          0          0         
P79              J34              J35              101.02     .011       0          0          0          0         
P83              J9               MairPond         89.13      .011       0          0          0          0         
P84              J14              MairPond         81.57      .011       0          0          0          0         
P85              J22              J15              95.97      .011       0          0          0          0         
P86              J23              J24              248.69     .011       0          0          0          0         
P87              J15              J16              456.39     .011       0          0          0          0         
P88              J16              J70              310        .011       0          0          0          0         
P89              J10              J15              436.84     .011       0          0          0          0         