[TITLE]
Scenario Run :  BASE

[OPTIONS]
;Option and Files Scenario Set: BASE, Base Simulation Options
FLOW_UNITS	MGD
INFILTRATION	HORTON
FLOW_ROUTING	DYNWAVE
ALLOW_PONDING	YES
DRY_DAYS	0.000000
SKIP_STEADY_STATE 	NO
IGNORE_RAINFALL	YES
IGNORE_SNOWMELT	YES
IGNORE_GROUNDWATER	YES
IGNORE_QUALITY	NO
FORCE_MAIN_EQUATION	H-W
LINK_OFFSETS	DEPTH
MIN_SLOPE	0.000000
START_DATE	12/07/2012
START_TIME	00:00
END_DATE	12/08/2012
END_TIME	03:00
REPORT_START_DATE	12/07/2012
REPORT_START_TIME	00:00
SWEEP_START	01/01
SWEEP_END	12/31
WET_STEP	00:05:00
DRY_STEP	01:00:00
ROUTING_STEP	30
REPORT_STEP	00:15:00
INERTIAL_DAMPING	NONE
VARIABLE_STEP	0.750000
MINIMUM_STEP	0.5
LENGTHENING_STEP	10
MIN_SURFAREA	0.000000
NORMAL_FLOW_LIMITED	BOTH
MAX_TRIALS	4
HEAD_TOLERANCE	0.005000

[FILES]

[RAINGAGES]
CN_GAGE	CUMULATIVE	0.250000	1.000000	TIMESERIES	SCS3		

[HYDROGRAPHS]

[EVAPORATION]
CONSTANT	0.000000
DRY_ONLY	NO

[TEMPERATURE]

[ADJUSTMENTS]

[SUBCATCHMENTS]
S11690.1	CN_GAGE	11690	0.000000	0.000000	321.821423	1.577453	0.000000
S11697.1	CN_GAGE	11697	0.000000	0.000000	144.725254	5.032136	0.000000
S11705.1	CN_GAGE	11705	0.000000	0.000000	118.513324	0.986425	0.000000
S11705.2	CN_GAGE	11705	0.000000	0.000000	102.808019	0.986425	0.000000
S11706.1	CN_GAGE	11706	0.000000	0.000000	101.896827	0.978355	0.000000
S11707.1	CN_GAGE	11707	0.000000	0.000000	114.214991	0.000000	0.000000
S11707.2	CN_GAGE	11707	0.000000	0.000000	122.087756	0.000000	0.000000
S11708.1	CN_GAGE	11708	0.000000	0.000000	117.982094	4.557609	0.000000
S11709.1	CN_GAGE	11709	0.000000	0.000000	113.403211	2.807521	0.000000
S11709.2	CN_GAGE	11709	0.000000	0.000000	121.840995	2.807521	0.000000
S11729.1	CN_GAGE	11729	0.000000	0.000000	109.803079	4.342211	0.000000
S11729.2	CN_GAGE	11729	0.000000	0.000000	61.861727	4.342211	0.000000
S11730.1	CN_GAGE	11730	0.000000	0.000000	98.630566	4.857002	0.000000
S11731.1	CN_GAGE	11731	0.000000	0.000000	95.350797	4.379901	0.000000
S11731.2	CN_GAGE	11731	0.000000	0.000000	130.754110	4.379901	0.000000
S11732.1	CN_GAGE	11732	0.000000	0.000000	172.120430	1.003884	0.000000
S11733.1	CN_GAGE	11733	0.000000	0.000000	64.015277	0.962893	0.000000
S11733.2	CN_GAGE	11733	0.000000	0.000000	46.971834	0.962893	0.000000
S11734.1	CN_GAGE	11734	0.000000	0.000000	97.807453	0.907945	0.000000
S11735.1	CN_GAGE	11735	0.000000	0.000000	106.851218	1.529555	0.000000
S11735.2	CN_GAGE	11735	0.000000	0.000000	134.573972	1.529555	0.000000
S11736.1	CN_GAGE	11736	0.000000	0.000000	87.964978	3.579411	0.000000
S11736.2	CN_GAGE	11736	0.000000	0.000000	115.646617	3.579411	0.000000
S11737.1	CN_GAGE	11737	0.000000	0.000000	151.667122	0.902954	0.000000
S11738.1	CN_GAGE	11738	0.000000	0.000000	148.384205	1.268233	0.000000
S11757.1	CN_GAGE	11757	0.000000	0.000000	233.522114	0.565217	0.000000
S11758.1	CN_GAGE	11758	0.000000	0.000000	368.238410	1.227301	0.000000
S11761.1	CN_GAGE	11761	0.000000	0.000000	114.443780	0.945502	0.000000
S11761.2	CN_GAGE	11761	0.000000	0.000000	63.559892	0.945502	0.000000
S11761.3	CN_GAGE	11761	0.000000	0.000000	83.339995	0.945502	0.000000
S11764.1	CN_GAGE	11764	0.000000	0.000000	100.357557	0.951654	0.000000
S11764.2	CN_GAGE	11764	0.000000	0.000000	127.374582	0.951654	0.000000
S11765.1	CN_GAGE	11765	0.000000	0.000000	87.453844	4.049399	0.000000
S11765.2	CN_GAGE	11765	0.000000	0.000000	104.745721	4.049399	0.000000
S11766.1	CN_GAGE	11766	0.000000	0.000000	174.288306	0.950459	0.000000
S11767.1	CN_GAGE	11767	0.000000	0.000000	142.228158	1.406250	0.000000
S11768.1	CN_GAGE	11768	0.000000	0.000000	70.628003	1.071949	0.000000
S11768.2	CN_GAGE	11768	0.000000	0.000000	106.853054	1.071949	0.000000
S11769.1	CN_GAGE	11769	0.000000	0.000000	74.958007	1.117754	0.000000
S11769.2	CN_GAGE	11769	0.000000	0.000000	115.630017	1.117754	0.000000
S11771	CN_GAGE	11771	0.000000	0.000000	127.345258	0.861823	0.000000
S11771.1	CN_GAGE	11771	0.000000	0.000000	68.835861	0.861823	0.000000
S11772.1	CN_GAGE	11772	0.000000	0.000000	98.154718	0.991933	0.000000
S11772.2	CN_GAGE	11772	0.000000	0.000000	110.561401	0.991933	0.000000
S11773.1	CN_GAGE	11773	0.000000	0.000000	133.360673	3.130385	0.000000
S11777.1	CN_GAGE	11777	0.000000	0.000000	80.896963	6.251596	0.000000
S11778.1	CN_GAGE	11778	0.000000	0.000000	139.855916	3.279133	0.000000
S11779.1	CN_GAGE	11779	0.000000	0.000000	80.054606	2.836741	0.000000
S11779.2	CN_GAGE	11779	0.000000	0.000000	92.314329	2.836741	0.000000
S11780.1	CN_GAGE	11780	0.000000	0.000000	69.667033	0.960111	0.000000
S11781.1	CN_GAGE	11781	0.000000	0.000000	78.059435	1.289267	0.000000
S11781.2	CN_GAGE	11781	0.000000	0.000000	61.857327	1.289267	0.000000
S11782.1	CN_GAGE	11782	0.000000	0.000000	77.611293	5.036630	0.000000
S11782.2	CN_GAGE	11782	0.000000	0.000000	94.010577	5.036630	0.000000
S11783.1	CN_GAGE	11783	0.000000	0.000000	114.692422	4.905820	0.000000
S11783.2	CN_GAGE	11783	0.000000	0.000000	98.499775	4.905820	0.000000
S11784.1	CN_GAGE	11784	0.000000	0.000000	42.500067	4.732620	0.000000
S11784.2	CN_GAGE	11784	0.000000	0.000000	93.732217	4.732620	0.000000
S11785.1	CN_GAGE	11785	0.000000	0.000000	92.968141	1.410072	0.000000
S11785.2	CN_GAGE	11785	0.000000	0.000000	67.101930	1.410072	0.000000
S11787.1	CN_GAGE	11787	0.000000	0.000000	104.330066	5.009823	0.000000
S11787.2	CN_GAGE	11787	0.000000	0.000000	99.707270	5.009823	0.000000
S11788.1	CN_GAGE	11788	0.000000	0.000000	56.767581	6.680304	0.000000
S11789.1	CN_GAGE	11789	0.000000	0.000000	97.630706	5.165429	0.000000
S11789.2	CN_GAGE	11789	0.000000	0.000000	94.941089	5.165429	0.000000
S11791.1	CN_GAGE	11791	0.000000	0.000000	74.399407	3.652609	0.000000
S11791.2	CN_GAGE	11791	0.000000	0.000000	117.993345	3.652609	0.000000
S11792.1	CN_GAGE	11792	0.000000	0.000000	75.953613	1.562394	0.000000
S11792.2	CN_GAGE	11792	0.000000	0.000000	106.084744	1.562394	0.000000
S11793.1	CN_GAGE	11793	0.000000	0.000000	178.163098	1.127176	0.000000
S11794.1	CN_GAGE	11794	0.000000	0.000000	115.780507	1.518004	0.000000
S11794.2	CN_GAGE	11794	0.000000	0.000000	120.304230	1.518004	0.000000
S11794.3	CN_GAGE	11794	0.000000	0.000000	90.782487	1.518004	0.000000
S11794.4	CN_GAGE	11794	0.000000	0.000000	100.063806	1.518004	0.000000
S11795.1	CN_GAGE	11795	0.000000	0.000000	99.903560	0.908784	0.000000
S11795.2	CN_GAGE	11795	0.000000	0.000000	75.053326	0.908784	0.000000
S11796.1	CN_GAGE	11796	0.000000	0.000000	87.048864	0.790585	0.000000
S11796.2	CN_GAGE	11796	0.000000	0.000000	113.029501	0.790585	0.000000
S11797.1	CN_GAGE	11797	0.000000	0.000000	64.245912	2.178447	0.000000
S11798.1	CN_GAGE	11798	0.000000	0.000000	93.325171	5.121612	0.000000
S11798.2	CN_GAGE	11798	0.000000	0.000000	91.549459	5.121612	0.000000
S11799.1	CN_GAGE	11799	0.000000	0.000000	81.448658	1.397493	0.000000
S11799.2	CN_GAGE	11799	0.000000	0.000000	97.838699	1.397493	0.000000
S11799.3	CN_GAGE	11799	0.000000	0.000000	84.274485	1.397493	0.000000
S11803.1	CN_GAGE	11803	0.000000	0.000000	62.118134	1.355685	0.000000
S11803.2	CN_GAGE	11803	0.000000	0.000000	110.941710	1.355685	0.000000
S11804.1	CN_GAGE	11804	0.000000	0.000000	99.175903	4.103086	0.000000
S11805.1	CN_GAGE	11805	0.000000	0.000000	128.635394	3.229901	0.000000
S11805.2	CN_GAGE	11805	0.000000	0.000000	67.957200	3.229901	0.000000
S11806.1	CN_GAGE	11806	0.000000	0.000000	74.414560	4.081633	0.000000
S11808.1	CN_GAGE	11808	0.000000	0.000000	128.242669	1.628352	0.000000
S11810.1	CN_GAGE	11810	0.000000	0.000000	114.417449	0.434907	0.000000
S11810.2	CN_GAGE	11810	0.000000	0.000000	123.553820	0.434907	0.000000
S11811.1	CN_GAGE	11811	0.000000	0.000000	102.510538	1.002874	0.000000
S11811.2	CN_GAGE	11811	0.000000	0.000000	100.813879	1.002874	0.000000
S11811.3	CN_GAGE	11811	0.000000	0.000000	96.475294	1.002874	0.000000
S11811.4	CN_GAGE	11811	0.000000	0.000000	109.037906	1.002874	0.000000
S11812.1	CN_GAGE	11812	0.000000	0.000000	86.597901	1.000000	0.000000
S11813.1	CN_GAGE	11813	0.000000	0.000000	86.071429	3.987941	0.000000
S11814.1	CN_GAGE	11814	0.000000	0.000000	168.110578	2.818565	0.000000
S11815.1	CN_GAGE	11815	0.000000	0.000000	91.724491	1.059603	0.000000
S11815.2	CN_GAGE	11815	0.000000	0.000000	63.047114	1.059603	0.000000
S11816.1	CN_GAGE	11816	0.000000	0.000000	136.857427	0.851434	0.000000
S11817.1	CN_GAGE	11817	0.000000	0.000000	77.731878	1.648690	0.000000
S11817.2	CN_GAGE	11817	0.000000	0.000000	117.130069	1.648690	0.000000
S11818.1	CN_GAGE	11818	0.000000	0.000000	198.849958	3.590633	0.000000
S11819.1	CN_GAGE	11819	0.000000	0.000000	85.888289	3.665846	0.000000
S11819.2	CN_GAGE	11819	0.000000	0.000000	77.905004	3.665846	0.000000
S11820.1	CN_GAGE	11820	0.000000	0.000000	158.202908	3.839157	0.000000
S11820.2	CN_GAGE	11820	0.000000	0.000000	104.901477	3.839157	0.000000
S11821.1	CN_GAGE	11821	0.000000	0.000000	98.238053	0.925690	0.000000
S11822.1	CN_GAGE	11822	0.000000	0.000000	98.096307	2.397418	0.000000
S11822.2	CN_GAGE	11822	0.000000	0.000000	78.419299	2.397418	0.000000
S11826.1	CN_GAGE	11826	0.000000	0.000000	102.837858	5.024058	0.000000
S11826.2	CN_GAGE	11826	0.000000	0.000000	89.400090	5.024058	0.000000
S11827.1	CN_GAGE	11827	0.000000	0.000000	111.834097	1.770956	0.000000
S11828.1	CN_GAGE	11828	0.000000	0.000000	81.864210	2.166818	0.000000
S11828.2	CN_GAGE	11828	0.000000	0.000000	54.943226	2.166818	0.000000
S11829.1	CN_GAGE	11829	0.000000	0.000000	224.236160	0.110294	0.000000
S11830.1	CN_GAGE	11830	0.000000	0.000000	115.410808	4.996762	0.000000
S11830.2	CN_GAGE	11830	0.000000	0.000000	84.960218	4.996762	0.000000
S11831.1	CN_GAGE	11831	0.000000	0.000000	95.346053	5.537796	0.000000
S11831.2	CN_GAGE	11831	0.000000	0.000000	103.824538	5.537796	0.000000
S11832.1	CN_GAGE	11832	0.000000	0.000000	78.093323	5.003309	0.000000
S11832.2	CN_GAGE	11832	0.000000	0.000000	110.718526	5.003309	0.000000
S11833.1	CN_GAGE	11833	0.000000	0.000000	190.410163	2.470850	0.000000
S11834.1	CN_GAGE	11834	0.000000	0.000000	60.472658	4.511126	0.000000
S11834.2	CN_GAGE	11834	0.000000	0.000000	62.263354	4.511126	0.000000
S11835.1	CN_GAGE	11835	0.000000	0.000000	72.287902	4.229637	0.000000
S11835.2	CN_GAGE	11835	0.000000	0.000000	63.726750	4.229637	0.000000
S11836.1	CN_GAGE	11836	0.000000	0.000000	110.490376	4.812915	0.000000
S11836.2	CN_GAGE	11836	0.000000	0.000000	93.918147	4.812915	0.000000
S11838.1	CN_GAGE	11838	0.000000	0.000000	92.948916	2.044110	0.000000
S11839.1	CN_GAGE	11839	0.000000	0.000000	122.564912	0.890244	0.000000
S11841.1	CN_GAGE	11841	0.000000	0.000000	140.703769	5.434439	0.000000
S11842.1	CN_GAGE	11842	0.000000	0.000000	91.068911	5.403484	0.000000
S11842.2	CN_GAGE	11842	0.000000	0.000000	81.104989	5.403484	0.000000
S11843.1	CN_GAGE	11843	0.000000	0.000000	132.122883	0.126820	0.000000
S12118.1	CN_GAGE	12118	0.000000	0.000000	271.572383	12.866894	0.000000
S12118.2	CN_GAGE	12118	0.000000	0.000000	56.738636	12.866894	0.000000
S12120.1	CN_GAGE	12120	0.000000	0.000000	213.458598	1.456790	0.000000
S12122.1	CN_GAGE	12122	0.000000	0.000000	56.664367	1.234799	0.000000
S12123.1	CN_GAGE	12123	0.000000	0.000000	83.650582	1.246883	0.000000
S12124.1	CN_GAGE	12124	0.000000	0.000000	68.511492	0.985011	0.000000
S12125.1	CN_GAGE	12125	0.000000	0.000000	107.800415	1.156099	0.000000
S12125.2	CN_GAGE	12125	0.000000	0.000000	93.865837	1.156099	0.000000
S12127.1	CN_GAGE	12127	0.000000	0.000000	82.615690	3.483014	0.000000
S12128.1	CN_GAGE	12128	0.000000	0.000000	76.930729	1.306436	0.000000
S12129.1	CN_GAGE	12129	0.000000	0.000000	79.108487	2.642487	0.000000
S12129.2	CN_GAGE	12129	0.000000	0.000000	107.849379	2.642487	0.000000
S12130.1	CN_GAGE	12130	0.000000	0.000000	89.771176	3.431932	0.000000
S12130.2	CN_GAGE	12130	0.000000	0.000000	87.573580	3.431932	0.000000
S12131.1	CN_GAGE	12131	0.000000	0.000000	117.811918	1.192348	0.000000
S12131.2	CN_GAGE	12131	0.000000	0.000000	79.310721	1.192348	0.000000
S12131.3	CN_GAGE	12131	0.000000	0.000000	66.861054	1.192348	0.000000
S12132.1	CN_GAGE	12132	0.000000	0.000000	101.233530	1.012419	0.000000
S12132.2	CN_GAGE	12132	0.000000	0.000000	107.913890	1.012419	0.000000
S12134.1	CN_GAGE	12134	0.000000	0.000000	54.111281	1.165919	0.000000
S12134.2	CN_GAGE	12134	0.000000	0.000000	65.216685	1.165919	0.000000
S12136.1	CN_GAGE	12136	0.000000	0.000000	41.997071	1.477695	0.000000
S12136.2	CN_GAGE	12136	0.000000	0.000000	47.899436	1.477695	0.000000
S12137.1	CN_GAGE	12137	0.000000	0.000000	111.647074	0.985877	0.000000
S12137.2	CN_GAGE	12137	0.000000	0.000000	111.821582	0.985877	0.000000
S12139.1	CN_GAGE	12139	0.000000	0.000000	105.916751	0.777399	0.000000
S12139.2	CN_GAGE	12139	0.000000	0.000000	88.192767	0.777399	0.000000
S12140.1	CN_GAGE	12140	0.000000	0.000000	63.969184	0.000000	0.000000
S12140.2	CN_GAGE	12140	0.000000	0.000000	68.859252	0.000000	0.000000
S12141.1	CN_GAGE	12141	0.000000	0.000000	69.308743	1.034700	0.000000
S12141.2	CN_GAGE	12141	0.000000	0.000000	80.559835	1.034700	0.000000
S12142.1	CN_GAGE	12142	0.000000	0.000000	88.553110	1.629419	0.000000
S12142.2	CN_GAGE	12142	0.000000	0.000000	102.741942	1.629419	0.000000
S12145.1	CN_GAGE	12145	0.000000	0.000000	223.726844	1.368421	0.000000
S12151.1	CN_GAGE	12151	0.000000	0.000000	82.371324	0.505186	0.000000
S12152.1	CN_GAGE	12152	0.000000	0.000000	99.678934	1.053080	0.000000
S12152.2	CN_GAGE	12152	0.000000	0.000000	108.730837	1.053080	0.000000
S12153.1	CN_GAGE	12153	0.000000	0.000000	97.407401	1.701687	0.000000
S12153.2	CN_GAGE	12153	0.000000	0.000000	91.153311	1.701687	0.000000
S12154.1	CN_GAGE	12154	0.000000	0.000000	79.278186	1.142857	0.000000
S12154.2	CN_GAGE	12154	0.000000	0.000000	88.789394	1.142857	0.000000
S12155.1	CN_GAGE	12155	0.000000	0.000000	74.648521	0.989562	0.000000
S12155.2	CN_GAGE	12155	0.000000	0.000000	94.569450	0.989562	0.000000
S12156.1	CN_GAGE	12156	0.000000	0.000000	81.269498	1.870639	0.000000
S12156.2	CN_GAGE	12156	0.000000	0.000000	110.425398	1.870639	0.000000
S12156.3	CN_GAGE	12156	0.000000	0.000000	90.410026	1.870639	0.000000
S12157.1	CN_GAGE	12157	0.000000	0.000000	106.191572	1.512801	0.000000
S12157.2	CN_GAGE	12157	0.000000	0.000000	95.625240	1.512801	0.000000
S12158.1	CN_GAGE	12158	0.000000	0.000000	104.487605	1.772260	0.000000
S12158.2	CN_GAGE	12158	0.000000	0.000000	96.726270	1.772260	0.000000
S12159.1	CN_GAGE	12159	0.000000	0.000000	55.613838	3.049759	0.000000
S12159.2	CN_GAGE	12159	0.000000	0.000000	47.643234	3.049759	0.000000
S12161.1	CN_GAGE	12161	0.000000	0.000000	94.525983	1.442342	0.000000
S12161.2	CN_GAGE	12161	0.000000	0.000000	92.265441	1.442342	0.000000
S12162.1	CN_GAGE	12162	0.000000	0.000000	49.637727	2.648221	0.000000
S12164.1	CN_GAGE	12164	0.000000	0.000000	90.801821	1.446564	0.000000
S12164.2	CN_GAGE	12164	0.000000	0.000000	86.553016	1.446564	0.000000
S12166.1	CN_GAGE	12166	0.000000	0.000000	79.837738	1.018062	0.000000
S12166.2	CN_GAGE	12166	0.000000	0.000000	57.030584	1.018062	0.000000
S12168.1	CN_GAGE	12168	0.000000	0.000000	56.567935	1.049914	0.000000
S12168.2	CN_GAGE	12168	0.000000	0.000000	61.729795	1.049914	0.000000
S12169.1	CN_GAGE	12169	0.000000	0.000000	91.462135	1.000966	0.000000
S12169.2	CN_GAGE	12169	0.000000	0.000000	95.539246	1.000966	0.000000
S12170.1	CN_GAGE	12170	0.000000	0.000000	108.842240	1.965763	0.000000
S12170.2	CN_GAGE	12170	0.000000	0.000000	107.450336	1.965763	0.000000
S12171.1	CN_GAGE	12171	0.000000	0.000000	76.943985	5.185831	0.000000
S12173.1	CN_GAGE	12173	0.000000	0.000000	85.030602	1.508380	0.000000
S12173.2	CN_GAGE	12173	0.000000	0.000000	57.340082	1.508380	0.000000
S12174.1	CN_GAGE	12174	0.000000	0.000000	128.441196	1.692870	0.000000
S12175.1	CN_GAGE	12175	0.000000	0.000000	70.503650	1.425648	0.000000
S12175.2	CN_GAGE	12175	0.000000	0.000000	68.342272	1.425648	0.000000
S12176.1	CN_GAGE	12176	0.000000	0.000000	86.107477	1.091195	0.000000
S12176.2	CN_GAGE	12176	0.000000	0.000000	86.241076	1.091195	0.000000
S12177.1	CN_GAGE	12177	0.000000	0.000000	67.053997	1.001624	0.000000
S12177.2	CN_GAGE	12177	0.000000	0.000000	87.775286	1.001624	0.000000
S12178.1	CN_GAGE	12178	0.000000	0.000000	95.820404	1.339102	0.000000
S12178.2	CN_GAGE	12178	0.000000	0.000000	62.738683	1.339102	0.000000
S12178.3	CN_GAGE	12178	0.000000	0.000000	50.078678	1.339102	0.000000
S12191.1	CN_GAGE	12191	0.000000	0.000000	853.471078	0.937500	0.000000
S12198	CN_GAGE	12198	0.766765	100.000000	103.109868	8.153893	0.000000
S12199	CN_GAGE	12199	1.630055	100.000000	150.338468	8.368364	0.000000
S12200	CN_GAGE	12200	0.846140	100.000000	108.315393	6.043230	0.000000
S12201	CN_GAGE	12201	0.618260	100.000000	92.587971	3.171952	0.000000
S12202	CN_GAGE	12202	1.107859	100.000000	123.939904	1.323151	0.000000
S12203	CN_GAGE	12203	1.075807	100.000000	122.133878	5.240537	0.000000
S12204	CN_GAGE	12204	0.738554	100.000000	101.195268	3.577274	0.000000
S12205	CN_GAGE	12205	1.501085	100.000000	144.268552	3.067856	0.000000
S12206	CN_GAGE	12206	1.196338	100.000000	128.794114	1.962810	0.000000
S12206.2	CN_GAGE	12206	0.710919	100.000000	99.283920	1.962810	0.000000
S12207	CN_GAGE	12207	0.663698	100.000000	95.929955	1.592136	0.000000
S12208	CN_GAGE	12208	1.774126	100.000000	156.841566	3.605216	0.000000
S12209	CN_GAGE	12209	1.161962	100.000000	126.930188	3.576835	0.000000
S12210	CN_GAGE	12210	1.611250	100.000000	149.468780	1.226247	0.000000
S12211	CN_GAGE	12211	1.492933	100.000000	143.876285	2.766706	0.000000
S12212	CN_GAGE	12212	1.064212	100.000000	121.473923	1.989947	0.000000
S12214	CN_GAGE	12214	0.327099	100.000000	67.345542	0.702593	0.000000
S12215	CN_GAGE	12215	0.754513	100.000000	102.282717	0.883262	0.000000
S12216	CN_GAGE	12216	1.772782	100.000000	156.782172	1.008043	0.000000
S12217	CN_GAGE	12217	1.286410	100.000000	133.554555	1.663527	0.000000
S12218	CN_GAGE	12218	2.075132	100.000000	169.625773	2.125896	0.000000
S12219	CN_GAGE	12219	1.834537	100.000000	159.489567	1.602373	0.000000
S12220	CN_GAGE	12220	2.167552	100.000000	173.361956	2.496782	0.000000
S12221	CN_GAGE	12221	1.351126	100.000000	136.872721	1.653578	0.000000
S12222	CN_GAGE	12222	1.013636	100.000000	118.552318	1.984433	0.000000
S12223	CN_GAGE	12223	1.966022	100.000000	165.106140	1.225239	0.000000
S12224	CN_GAGE	12224	1.518620	100.000000	145.108737	1.150752	0.000000
S12226	CN_GAGE	12226	1.075069	100.000000	122.091966	0.000000	0.000000
S12227	CN_GAGE	12227	0.963597	100.000000	115.589031	2.619806	0.000000
S12228	CN_GAGE	12228	1.063692	100.000000	121.444233	1.671114	0.000000
S12229	CN_GAGE	12229	1.380769	100.000000	138.366048	2.092555	0.000000
S12230	CN_GAGE	12230	1.809496	100.000000	158.397330	2.331092	0.000000
S12231	CN_GAGE	12231	2.018558	100.000000	167.297574	2.610662	0.000000
S12232	CN_GAGE	12232	2.047781	100.000000	168.504206	2.502308	0.000000
S12233	CN_GAGE	12233	2.022948	100.000000	167.479395	1.010397	0.000000
S12234	CN_GAGE	12234	0.898164	100.000000	111.595522	3.419674	0.000000
S12236	CN_GAGE	12236	1.253930	100.000000	131.857758	1.659416	0.000000
S12237	CN_GAGE	12237	1.252670	100.000000	131.791507	1.288866	0.000000
S12238	CN_GAGE	12238	0.771728	100.000000	103.443028	1.999284	0.000000
S12239	CN_GAGE	12239	1.650905	100.000000	151.296925	1.266932	0.000000
S12240	CN_GAGE	12240	2.441061	100.000000	183.974787	1.725829	0.000000
S12242	CN_GAGE	12242	3.433450	100.000000	218.189762	4.600404	0.000000
S12243	CN_GAGE	12243	2.785340	100.000000	196.520602	4.968735	0.000000
S12244	CN_GAGE	12244	0.890284	100.000000	111.104905	2.010739	0.000000
S12245	CN_GAGE	12245	0.710556	100.000000	99.258636	1.659584	0.000000
S12246	CN_GAGE	12246	3.012314	100.000000	204.370922	2.133520	0.000000
S12247	CN_GAGE	12247	2.011724	100.000000	167.014113	1.220389	0.000000
S12249	CN_GAGE	12249	1.151426	100.000000	126.353437	1.979114	0.000000
S12250	CN_GAGE	12250	0.620751	100.000000	92.774297	1.367539	0.000000
S12251	CN_GAGE	12251	1.137762	100.000000	125.601445	1.715307	0.000000
S12252	CN_GAGE	12252	0.492151	100.000000	82.607283	3.997783	0.000000
S12253	CN_GAGE	12253	1.418338	100.000000	140.235793	1.304095	0.000000
S12254	CN_GAGE	12254	1.472167	100.000000	142.872142	0.301580	0.000000
S12258	CN_GAGE	12258	0.363703	100.000000	71.013715	1.680062	0.000000
S12259	CN_GAGE	12259	0.354036	100.000000	70.063636	2.656313	0.000000
S12260	CN_GAGE	12260	0.962180	100.000000	115.504059	6.963158	0.000000
S12261	CN_GAGE	12261	1.732018	100.000000	154.969145	3.865213	0.000000
S12262	CN_GAGE	12262	1.055511	100.000000	120.976337	1.206726	0.000000
S12263	CN_GAGE	12263	0.379871	100.000000	72.574999	2.035280	0.000000
S12264	CN_GAGE	12264	0.969828	100.000000	115.962151	2.176570	0.000000
S12265	CN_GAGE	12265	0.932479	100.000000	113.707351	3.764609	0.000000
S12266	CN_GAGE	12266	1.444540	100.000000	141.525213	1.017132	0.000000
S12267	CN_GAGE	12267	0.344094	100.000000	69.072917	2.027667	0.000000
S12268	CN_GAGE	12268	0.442456	100.000000	78.325670	3.052486	0.000000
S12268.2	CN_GAGE	12268	0.418274	100.000000	76.155148	3.052486	0.000000
S12269	CN_GAGE	12269	2.763929	100.000000	195.763814	3.341327	0.000000
S12270	CN_GAGE	12270	0.744057	100.000000	101.571572	15.876918	0.000000
S12271	CN_GAGE	12271	0.736832	100.000000	101.077176	3.340040	0.000000
S12272	CN_GAGE	12272	2.841155	100.000000	198.479865	4.504870	0.000000
S12273	CN_GAGE	12273	0.728968	100.000000	100.536405	4.249913	0.000000
S12274	CN_GAGE	12274	0.146982	100.000000	45.144041	2.026098	0.000000
S12275	CN_GAGE	12275	0.924875	100.000000	113.242787	2.970630	0.000000
S12276	CN_GAGE	12276	0.896873	100.000000	111.515298	0.974160	0.000000
S12277	CN_GAGE	12277	0.820889	100.000000	106.686945	1.212994	0.000000
S12278	CN_GAGE	12278	1.243808	100.000000	131.324492	2.498551	0.000000
S12279	CN_GAGE	12279	0.614421	100.000000	92.300034	1.321414	0.000000
S12280	CN_GAGE	12280	1.368105	100.000000	137.730076	0.998208	0.000000
S12281	CN_GAGE	12281	0.324163	100.000000	67.042615	2.573528	0.000000
S12282	CN_GAGE	12282	0.950899	100.000000	114.824951	4.468466	0.000000
S12284	CN_GAGE	12284	0.975107	100.000000	116.277335	1.747957	0.000000
S12285	CN_GAGE	12285	0.315563	100.000000	66.147251	6.129870	0.000000
S12286	CN_GAGE	12286	1.269894	100.000000	132.694455	1.109371	0.000000
S12287	CN_GAGE	12287	0.704971	100.000000	98.867759	0.994439	0.000000
S12288	CN_GAGE	12288	0.661590	100.000000	95.777508	4.181208	0.000000
S12289	CN_GAGE	12289	0.439759	100.000000	78.086593	0.536707	0.000000
S12291	CN_GAGE	12291	1.766214	100.000000	156.491447	1.372104	0.000000
S12292.1	CN_GAGE	12292	0.793540	100.000000	104.894644	0.455875	0.000000
S12293	CN_GAGE	12293	1.292303	100.000000	133.860087	1.190212	0.000000
S12294	CN_GAGE	12294	1.044900	100.000000	120.366693	1.222302	0.000000
S12295	CN_GAGE	12295	0.990304	100.000000	117.179936	1.573755	0.000000
S12296	CN_GAGE	12296	1.304493	100.000000	134.489974	1.294988	0.000000
S12297	CN_GAGE	12297	1.467553	100.000000	142.648092	1.199830	0.000000
S12298	CN_GAGE	12298	1.144038	100.000000	125.947412	1.814040	0.000000
S12299	CN_GAGE	12299	0.891496	100.000000	111.180528	2.019103	0.000000
S12299.2	CN_GAGE	12299	0.865615	100.000000	109.554802	2.019103	0.000000
S12301	CN_GAGE	12301	1.018957	100.000000	118.863084	1.029920	0.000000
S12304	CN_GAGE	12304	1.820981	100.000000	158.899199	2.988024	0.000000
S12305	CN_GAGE	12305	2.736639	100.000000	194.794990	0.215406	0.000000
S12306	CN_GAGE	12306	0.846409	100.000000	108.332618	1.873371	0.000000
S12306.2	CN_GAGE	12306	0.861503	100.000000	109.294274	1.873371	0.000000
S12307	CN_GAGE	12307	1.859903	100.000000	160.588396	1.739976	0.000000
S12308	CN_GAGE	12308	1.566077	100.000000	147.358612	3.010676	0.000000
S12309	CN_GAGE	12309	2.027709	100.000000	167.676364	1.349377	0.000000
S12310	CN_GAGE	12310	0.884950	100.000000	110.771605	6.650961	0.000000
S12311	CN_GAGE	12311	0.767475	100.000000	103.157553	1.501302	0.000000
S12312	CN_GAGE	12312	1.014843	100.000000	118.622861	2.570223	0.000000
S12313	CN_GAGE	12313	0.682144	100.000000	97.253875	2.149159	0.000000
S12314	CN_GAGE	12314	1.215374	100.000000	129.814710	3.350034	0.000000
S12316	CN_GAGE	12316	0.963153	100.000000	115.562419	1.987981	0.000000
S12317	CN_GAGE	12317	1.348027	100.000000	136.715667	1.770688	0.000000
S12322	CN_GAGE	12322	0.928307	100.000000	113.452676	2.686391	0.000000
S12322.2	CN_GAGE	12322	0.898231	100.000000	111.599683	2.686391	0.000000
S12324	CN_GAGE	12324	1.049524	100.000000	120.632746	1.995367	0.000000
S12325	CN_GAGE	12325	0.609755	100.000000	91.948936	20.360183	0.000000
S12328	CN_GAGE	12328	1.254665	100.000000	131.896407	2.404769	0.000000
S12332	CN_GAGE	12332	0.632506	100.000000	93.648616	1.701971	0.000000
S12333	CN_GAGE	12333	1.325227	100.000000	135.554551	2.239462	0.000000
S12335	CN_GAGE	12335	0.421075	100.000000	76.409762	3.112413	0.000000
S12336	CN_GAGE	12336	0.680699	100.000000	97.150871	2.058822	0.000000
S12337	CN_GAGE	12337	0.776668	100.000000	103.773564	1.446613	0.000000
S12338	CN_GAGE	12338	0.000000	0.000000	417.359534	1.202899	0.000000
S12349	CN_GAGE	12349	0.600891	100.000000	91.278122	0.059535	0.000000
S12351	CN_GAGE	12351	13.232630	100.000000	428.343405	4.085988	0.000000
S12594.1	CN_GAGE	12594	0.000000	0.000000	56.312665	1.681514	0.000000
S12604.1	CN_GAGE	12604	0.000000	0.000000	82.936439	2.325879	0.000000
S12609.1	CN_GAGE	12609	0.000000	0.000000	74.865677	3.183898	0.000000
S12610.1	CN_GAGE	12610	0.000000	0.000000	105.799145	0.998793	0.000000
S12610.2	CN_GAGE	12610	0.000000	0.000000	96.597117	0.998793	0.000000
S12611.1	CN_GAGE	12611	0.000000	0.000000	179.962860	1.480469	0.000000
S12612.1	CN_GAGE	12612	0.000000	0.000000	71.304347	0.770241	0.000000
S12612.2	CN_GAGE	12612	0.000000	0.000000	84.833173	0.770241	0.000000
S12614.1	CN_GAGE	12614	0.000000	0.000000	112.758316	1.509751	0.000000
S12614.2	CN_GAGE	12614	0.000000	0.000000	85.602120	1.509751	0.000000
S12615.1	CN_GAGE	12615	0.000000	0.000000	110.841604	3.525219	0.000000
S12616.1	CN_GAGE	12616	0.000000	0.000000	87.594883	1.002524	0.000000
S12616.2	CN_GAGE	12616	0.000000	0.000000	96.931506	1.002524	0.000000
S12619.1	CN_GAGE	12619	0.000000	0.000000	138.589271	1.232469	0.000000
S12620.1	CN_GAGE	12620	0.000000	0.000000	123.813787	1.182519	0.000000
S12621.1	CN_GAGE	12621	0.000000	0.000000	94.233970	0.827723	0.000000
S12621.2	CN_GAGE	12621	0.000000	0.000000	83.746731	0.827723	0.000000
S12623.1	CN_GAGE	12623	0.000000	0.000000	98.412893	0.912712	0.000000
S12623.2	CN_GAGE	12623	0.000000	0.000000	111.010386	0.912712	0.000000
S12624.1	CN_GAGE	12624	0.000000	0.000000	79.661950	1.413634	0.000000
S12624.2	CN_GAGE	12624	0.000000	0.000000	77.991627	1.413634	0.000000
S12624.3	CN_GAGE	12624	0.000000	0.000000	110.591630	1.413634	0.000000
S12624.4	CN_GAGE	12624	0.000000	0.000000	106.657384	1.413634	0.000000
S12625.1	CN_GAGE	12625	0.000000	0.000000	84.245819	4.928646	0.000000
S12626.1	CN_GAGE	12626	0.000000	0.000000	186.930551	1.305660	0.000000
S12627.1	CN_GAGE	12627	0.000000	0.000000	95.871790	0.564827	0.000000
S12627.2	CN_GAGE	12627	0.000000	0.000000	81.764715	0.564827	0.000000
S12629.1	CN_GAGE	12629	0.000000	0.000000	195.963675	1.500962	0.000000
S12630.1	CN_GAGE	12630	0.000000	0.000000	126.446808	1.427554	0.000000
S12630.2	CN_GAGE	12630	0.000000	0.000000	92.503400	1.427554	0.000000
S12631.1	CN_GAGE	12631	0.000000	0.000000	109.362960	1.123031	0.000000
S12631.2	CN_GAGE	12631	0.000000	0.000000	93.016763	1.123031	0.000000
S12632.1	CN_GAGE	12632	0.000000	0.000000	122.112458	1.645280	0.000000
S12632.2	CN_GAGE	12632	0.000000	0.000000	102.441320	1.645280	0.000000
S12632.3	CN_GAGE	12632	0.000000	0.000000	78.025540	1.645280	0.000000
S12632.4	CN_GAGE	12632	0.000000	0.000000	92.734106	1.645280	0.000000
S12633.1	CN_GAGE	12633	0.000000	0.000000	44.903275	1.608967	0.000000
S12633.2	CN_GAGE	12633	0.000000	0.000000	127.364054	1.608967	0.000000
S12634.1	CN_GAGE	12634	0.000000	0.000000	56.101442	0.679975	0.000000
S12635.1	CN_GAGE	12635	0.000000	0.000000	144.758674	0.828423	0.000000
S12636.1	CN_GAGE	12636	0.000000	0.000000	87.611144	2.706138	0.000000
S12636.2	CN_GAGE	12636	0.000000	0.000000	100.904133	2.706138	0.000000
S12637.1	CN_GAGE	12637	0.000000	0.000000	91.869845	2.312500	0.000000
S12637.2	CN_GAGE	12637	0.000000	0.000000	124.341905	2.312500	0.000000
S12638.1	CN_GAGE	12638	0.000000	0.000000	79.159669	0.999343	0.000000
S12640.1	CN_GAGE	12640	0.000000	0.000000	111.166097	0.999536	0.000000
S12641.1	CN_GAGE	12641	0.000000	0.000000	146.784326	4.202851	0.000000
S12641.2	CN_GAGE	12641	0.000000	0.000000	86.109361	4.202851	0.000000
S12642.1	CN_GAGE	12642	0.000000	0.000000	75.312851	3.661972	0.000000
S12645.1	CN_GAGE	12645	0.000000	0.000000	137.427556	1.950611	0.000000
S12645.2	CN_GAGE	12645	0.000000	0.000000	123.017357	1.950611	0.000000
S12646.1	CN_GAGE	12646	0.000000	0.000000	136.663996	7.925546	0.000000
S12646.2	CN_GAGE	12646	0.000000	0.000000	107.609048	7.925546	0.000000
S12647.1	CN_GAGE	12647	0.000000	0.000000	115.062916	1.084498	0.000000
S12648.1	CN_GAGE	12648	0.000000	0.000000	52.905066	2.633028	0.000000
S12649.1	CN_GAGE	12649	0.000000	0.000000	84.770124	6.545254	0.000000
S12649.2	CN_GAGE	12649	0.000000	0.000000	79.664505	6.545254	0.000000
S12650.1	CN_GAGE	12650	0.000000	0.000000	116.891292	1.142527	0.000000
S12652.1	CN_GAGE	12652	0.000000	0.000000	98.390083	0.095633	0.000000
S12652.2	CN_GAGE	12652	0.000000	0.000000	106.553871	0.095633	0.000000
S12653.1	CN_GAGE	12653	0.000000	0.000000	112.818350	1.004057	0.000000
S12653.2	CN_GAGE	12653	0.000000	0.000000	58.243720	1.004057	0.000000
S12653.3	CN_GAGE	12653	0.000000	0.000000	69.674304	1.004057	0.000000
S12654.1	CN_GAGE	12654	0.000000	0.000000	117.262338	1.145136	0.000000
S12654.2	CN_GAGE	12654	0.000000	0.000000	124.483102	1.145136	0.000000
S12655.1	CN_GAGE	12655	0.000000	0.000000	105.965986	1.174569	0.000000
S12656.1	CN_GAGE	12656	0.000000	0.000000	92.706888	0.869952	0.000000
S12656.2	CN_GAGE	12656	0.000000	0.000000	109.687526	0.869952	0.000000
S12656.3	CN_GAGE	12656	0.000000	0.000000	98.897305	0.869952	0.000000
S12656.4	CN_GAGE	12656	0.000000	0.000000	88.827774	0.869952	0.000000
S12657.1	CN_GAGE	12657	0.000000	0.000000	83.868295	1.000935	0.000000
S12677.1	CN_GAGE	12677	0.000000	0.000000	76.622645	2.101654	0.000000
S12677.2	CN_GAGE	12677	0.000000	0.000000	71.346581	2.101654	0.000000
S12678.1	CN_GAGE	12678	0.000000	0.000000	47.884281	0.999260	0.000000
S12679.1	CN_GAGE	12679	0.000000	0.000000	46.222373	0.718563	0.000000
S12682.1	CN_GAGE	12682	0.000000	0.000000	83.011249	2.985653	0.000000
S12685.1	CN_GAGE	12685	0.000000	0.000000	118.702651	1.347803	0.000000