[TITLE]
;;Project Title/Notes

[OPTIONS]
;;Option             Value
FLOW_UNITS           MGD
INFILTRATION         HORTON
FLOW_ROUTING         DYNWAVE
LINK_OFFSETS         DEPTH
MIN_SLOPE            0
ALLOW_PONDING        NO
SKIP_STEADY_STATE    NO

IGNORE_RAINFALL      YES
IGNORE_SNOWMELT      YES
IGNORE_GROUNDWATER   YES
IGNORE_QUALITY       YES
START_DATE           12/17/2002
START_TIME           00:00:00
REPORT_START_DATE    12/17/2002
REPORT_START_TIME    00:00:00
END_DATE             12/18/2002
END_TIME             23:55:00
SWEEP_START          12/01
SWEEP_END            12/06
DRY_DAYS             1.000000
REPORT_STEP          00:05:00
WET_STEP             00:05:00
DRY_STEP             00:05:00
ROUTING_STEP         0:00:30 

INERTIAL_DAMPING     NONE
NORMAL_FLOW_LIMITED  BOTH
FORCE_MAIN_EQUATION  H-W
VARIABLE_STEP        0.75
LENGTHENING_STEP     5
MIN_SURFAREA         0
MAX_TRIALS           0
HEAD_TOLERANCE       0
SYS_FLOW_TOL         5
LAT_FLOW_TOL         5
MINIMUM_STEP         0.5
THREADS              1

[EVAPORATION]
;;Data Source    Parameters
;;-------------- ----------------
CONSTANT         0.0
DRY_ONLY         NO

[RAINGAGES]
;;Name           Format    Interval SCF      Source    
;;-------------- --------- ------ ------ ----------
RFS              CUMULATIVE 0.250000 1.000000 TIMESERIES REDD_FIRE_40_DAY

[JUNCTIONS]
;;Name           Elevation  MaxDepth   InitDepth  SurDepth   Aponded   
;;-------------- ---------- ---------- ---------- ---------- ----------
; MAN
20358            541.800000 9.000000   0.000000   0.000000   500.000000
; MAN
20361            536.840000 5.800000   0.000000   0.000000   500.000000
; MAN
20362            535.540000 7.900000   0.000000   0.000000   500.000000
; MAN
20363            531.720000 9.300000   0.000000   0.000000   500.000000
; MAN
20364            530.320000 11.700000  0.000000   0.000000   500.000000
; MAN
20365            536.330000 6.700000   0.000000   0.000000   500.000000
; MAN
20366            538.250000 6.200000   0.000000   0.000000   500.000000
; MAN
20374            534.810000 5.000000   0.000000   0.000000   500.000000
; MAN
20375            533.980000 12.200000  0.000000   0.000000   500.000000
; MAN
20377            529.780000 11.800000  0.000000   0.000000   500.000000
; MAN
20378            528.970000 12.000000  0.000000   0.000000   500.000000
; MAN
20379            535.780000 9.400000   0.000000   0.000000   500.000000
; MAN
20380            531.780000 8.200000   0.000000   0.000000   500.000000
; MAN
20383            533.150000 6.300000   0.000000   0.000000   500.000000
; MAN
20385            528.300000 10.200000  0.000000   0.000000   500.000000
; MAN
20386            527.500000 11.700000  0.000000   0.000000   500.000000
; MAN
20389            538.180000 5.000000   0.000000   0.000000   500.000000
; MAN
20392            526.710000 2.710000   0.000000   0.000000   500.000000
; MAN
20395            520.880000 15.100000  0.000000   0.000000   500.000000
; MAN
20396            518.200000 5.800000   0.000000   0.000000   500.000000
; MAN
20397            518.063000 5.937000   0.000000   0.000000   500.000000
; MAN
20398            522.390000 15.600000  0.000000   0.000000   500.000000
; MAN
20399            521.400000 16.600000  0.000000   0.000000   500.000000
; MAN
20402            532.630000 10.000000  0.000000   0.000000   500.000000
; MAN
20403            529.070000 12.400000  0.000000   0.000000   500.000000
; MAN
20405            535.590000 8.800000   0.000000   0.000000   500.000000
; MAN
20408            525.400000 4.600000   0.000000   0.000000   500.000000
; MAN
20409            523.560000 6.700000   0.000000   0.000000   500.000000
; MAN
20412            525.060000 6.900000   0.000000   0.000000   500.000000
; MAN
20413            525.270000 6.700000   0.000000   0.000000   500.000000
; MAN
20414            527.690000 6.500000   0.000000   0.000000   500.000000
; MAN
20415            526.920000 7.500000   0.000000   0.000000   500.000000
; MAN
20416            525.990000 8.000000   0.000000   0.000000   500.000000
; MAN
20417            524.570000 7.430000   0.000000   0.000000   500.000000
; MAN
20426            536.660000 7.700000   0.000000   0.000000   500.000000
; MAN
20429            532.700000 6.300000   0.000000   0.000000   500.000000
; MAN
20430            531.390000 7.600000   0.000000   0.000000   500.000000
; MAN
20432            526.250000 5.300000   0.000000   0.000000   500.000000
; MAN
20436            534.110000 7.900000   0.000000   0.000000   500.000000
; MAN
20437            535.000000 9.500000   0.000000   0.000000   500.000000
; MAN
20439            530.660000 7.300000   0.000000   0.000000   500.000000
; MAN
20440            530.230000 10.800000  0.000000   0.000000   500.000000
; MAN
20444            537.440000 14.000000  0.000000   0.000000   500.000000
; MAN
20445            539.210000 8.800000   0.000000   0.000000   500.000000
; MAN
20449            540.400000 14.600000  0.000000   0.000000   500.000000
; MAN
20455            544.010000 8.200000   0.000000   0.000000   500.000000
; MAN
20456            541.380000 9.100000   0.000000   0.000000   500.000000
; MAN
20459            530.620000 5.200000   0.000000   0.000000   500.000000
; MAN
20460            529.420000 10.380000  0.000000   0.000000   500.000000
; MAN
20479            511.910000 7.000000   0.000000   0.000000   500.000000
; MAN
20480            510.670000 8.800000   0.000000   0.000000   500.000000
; MAN
20481            509.070000 10.100000  0.000000   0.000000   500.000000
; MAN
20482            503.180000 13.500000  0.000000   0.000000   500.000000
; MAN
20485            559.850000 7.700000   0.000000   0.000000   500.000000
; MAN
20486            557.660000 4.400000   0.000000   0.000000   500.000000
; MAN
20487            548.730000 6.500000   0.000000   0.000000   500.000000
; MAN
20490            538.000000 6.000000   0.000000   0.000000   500.000000
; MAN
20491            529.240000 10.200000  0.000000   0.000000   500.000000
; MAN
20492            522.850000 7.700000   0.000000   0.000000   500.000000
; MAN
20499            524.150000 5.100000   0.000000   0.000000   500.000000
; MAN
20501            525.300000 6.100000   0.000000   0.000000   500.000000
; MAN
20504            501.270000 11.900000  0.000000   0.000000   500.000000
; MAN
20509            513.110000 10.000000  0.000000   0.000000   500.000000
; MAN
20510            499.380000 14.200000  0.000000   0.000000   500.000000
; MAN
20511            497.070000 10.500000  0.000000   0.000000   500.000000
; MAN
20512            496.430000 10.900000  0.000000   0.000000   500.000000
; MAN
20513            495.910000 10.600000  0.000000   0.000000   500.000000
; MAN
20525            516.410000 4.600000   0.000000   0.000000   500.000000
; MAN
20532            508.380000 6.600000   0.000000   0.000000   500.000000
; MAN
20533            506.830000 7.000000   0.000000   0.000000   500.000000
; MAN
20534            506.540000 7.000000   0.000000   0.000000   500.000000
; MAN
20537            505.030000 7.000000   0.000000   0.000000   500.000000
; MAN
20538            505.070000 7.100000   0.000000   0.000000   500.000000
; MAN
20541            504.030000 8.000000   0.000000   0.000000   500.000000
; MAN
20547            526.800000 6.000000   0.000000   0.000000   500.000000
; MAN
20548            518.070000 6.500000   0.000000   0.000000   500.000000
; MAN
20551            537.030000 8.400000   0.000000   0.000000   500.000000
; MAN
20552            535.210000 6.000000   0.000000   0.000000   500.000000
; MAN
20553            530.780000 5.000000   0.000000   0.000000   500.000000
; MAN
20554            526.210000 4.000000   0.000000   0.000000   500.000000
; MAN
20555            523.170000 6.700000   0.000000   0.000000   500.000000
; MAN
20556            521.700000 10.300000  0.000000   0.000000   500.000000
; MAN
20557            550.530000 9.000000   0.000000   0.000000   500.000000
; MAN
20558            545.600000 7.000000   0.000000   0.000000   500.000000
; MAN
20560            544.480000 7.000000   0.000000   0.000000   500.000000
; MAN
20561            543.340000 10.000000  0.000000   0.000000   500.000000
; MAN
20562            540.540000 10.000000  0.000000   0.000000   500.000000
; MAN
20566            524.400000 10.000000  0.000000   0.000000   500.000000
; MAN
20567            505.490000 8.000000   0.000000   0.000000   500.000000
; MAN
20568            508.350000 7.100000   0.000000   0.000000   500.000000
; MAN
20569            520.240000 2.300000   0.000000   0.000000   500.000000
; MAN
20570            520.650000 8.300000   0.000000   0.000000   500.000000
; MAN
20571            521.756000 19.284000  0.000000   0.000000   500.000000
; MAN
20583            529.850000 2.000000   0.000000   0.000000   500.000000
; MAN
20584            528.910000 3.000000   0.000000   0.000000   500.000000
; MAN
20588            540.520000 4.000000   0.000000   0.000000   500.000000
; MAN
20589            527.980000 10.000000  0.000000   0.000000   500.000000
; MAN
20590            527.440000 10.000000  0.000000   0.000000   500.000000
; MAN
20591            526.980000 10.000000  0.000000   0.000000   500.000000
; MAN
20594            526.360000 10.000000  0.000000   0.000000   500.000000
; MAN
20595            526.170000 10.000000  0.000000   0.000000   500.000000
; MAN
20596            525.480000 10.000000  0.000000   0.000000   500.000000
; MAN
20598            525.190000 10.000000  0.000000   0.000000   500.000000
; MAN
20599            524.930000 10.000000  0.000000   0.000000   500.000000
; MAN
20600            524.130000 10.000000  0.000000   0.000000   500.000000
; MAN
20601            528.000000 10.000000  0.000000   0.000000   500.000000
; MAN
20602            523.580000 3.400000   0.000000   0.000000   500.000000
; MAN
20603            521.980000 5.000000   0.000000   0.000000   500.000000
; MAN
20629            539.900000 2.000000   0.000000   0.000000   500.000000
; MAN
20633            541.870000 5.000000   0.000000   0.000000   500.000000
; MAN
20634            541.110000 2.500000   0.000000   0.000000   500.000000
; MAN
20638            542.630000 2.500000   0.000000   0.000000   500.000000
; MAN
20640            539.170000 6.800000   0.000000   0.000000   500.000000
; MAN
20641            538.750000 12.000000  0.000000   0.000000   500.000000
; MAN
20642            537.210000 12.000000  0.000000   0.000000   500.000000
; MAN
20645            526.210000 12.800000  0.000000   0.000000   500.000000
; MAN
20756            527.470000 7.000000   0.000000   0.000000   500.000000
; MAN
20757            526.110000 7.500000   0.000000   0.000000   500.000000
; MAN
20758            529.020000 5.900000   0.000000   0.000000   500.000000
; MAN
20763            521.880000 9.800000   0.000000   0.000000   500.000000
; MAN
20764            520.400000 10.500000  0.000000   0.000000   500.000000
; MAN
20766            526.840000 5.500000   0.000000   0.000000   500.000000
; MAN
20768            524.150000 8.600000   0.000000   0.000000   500.000000
; MAN
20799            525.480000 5.500000   0.000000   0.000000   500.000000
; MAN
20802            521.010000 5.000000   0.000000   0.000000   500.000000
; MAN
20804            519.220000 6.300000   0.000000   0.000000   500.000000
; MAN
20867            518.500000 7.000000   0.000000   0.000000   500.000000
; MAN
20871            517.610000 9.000000   0.000000   0.000000   500.000000
; MAN
20872            516.620000 11.200000  0.000000   0.000000   500.000000
; MAN
20879            516.970000 7.300000   0.000000   0.000000   500.000000
; MAN
20904            466.010000 12.000000  0.000000   0.000000   500.000000
; MAN
20905            464.910000 10.600000  0.000000   0.000000   500.000000
; MAN
20906            470.410000 9.000000   0.000000   0.000000   500.000000
; MAN
20907            472.200000 9.500000   0.000000   0.000000   500.000000
; MAN
20908            474.840000 8.600000   0.000000   0.000000   500.000000
; MAN
20909            474.800000 7.900000   0.000000   0.000000   500.000000
; MAN
20910            467.770000 6.200000   0.000000   0.000000   500.000000
; MAN
20911            469.080000 7.800000   0.000000   0.000000   500.000000
; MAN
20912            487.000000 8.000000   0.000000   0.000000   500.000000
; MAN
20917            512.000000 5.000000   0.000000   0.000000   500.000000
; MAN
20919            510.150000 11.000000  0.000000   0.000000   500.000000
; MAN
20920            511.410000 10.000000  0.000000   0.000000   500.000000
; MAN
20922            512.690000 10.000000  0.000000   0.000000   500.000000
; MAN
20924            513.576000 9.114000   0.000000   0.000000   500.000000
; MAN
20926            514.040000 14.200000  0.000000   0.000000   500.000000
; MAN
20927            514.600000 14.400000  0.000000   0.000000   500.000000
; MAN
20928            515.020000 11.030000  0.000000   0.000000   500.000000
; MAN
20929            515.020000 10.000000  0.000000   0.000000   500.000000
; MAN
20930            516.290000 10.000000  0.000000   0.000000   500.000000
; MAN
20931            517.590000 10.070000  0.000000   0.000000   500.000000
; MAN
20932            521.150000 6.800000   0.000000   0.000000   500.000000
; MAN
20955            521.870000 10.000000  0.000000   0.000000   500.000000
; MAN
20959            519.110000 9.700000   0.000000   0.000000   500.000000
; MAN
20964            515.820000 11.200000  0.000000   0.000000   500.000000
; MAN
20965            518.730000 10.270000  0.000000   0.000000   500.000000
; MAN
20971            518.900000 10.700000  0.000000   0.000000   500.000000
; MAN
20972            518.150000 10.800000  0.000000   0.000000   500.000000
; MAN
20973            517.380000 11.000000  0.000000   0.000000   500.000000
; MAN
20974            519.310000 10.690000  0.000000   0.000000   500.000000
; MAN
20975            520.800000 10.000000  0.000000   0.000000   500.000000
; MAN
20979            519.650000 10.600000  0.000000   0.000000   500.000000
; MAN
20981            520.280000 8.000000   0.000000   0.000000   500.000000
; MAN
20982            520.780000 9.500000   0.000000   0.000000   500.000000
; MAN
20983            521.920000 7.300000   0.000000   0.000000   500.000000
; MAN
20988            524.830000 10.000000  0.000000   0.000000   500.000000
; MAN
20989            522.830000 6.000000   0.000000   0.000000   500.000000
; MAN
20990            523.820000 4.100000   0.000000   0.000000   500.000000
; MAN
20991            516.400000 8.600000   0.000000   0.000000   500.000000
; MAN
20992            486.700000 6.100000   0.000000   0.000000   500.000000
; MAN
20993            524.060000 6.000000   0.000000   0.000000   500.000000
; MAN
20994            484.540000 6.700000   0.000000   0.000000   500.000000
; MAN
21004            477.310000 4.700000   0.000000   0.000000   500.000000
; MAN
21005            476.200000 8.800000   0.000000   0.000000   500.000000
; MAN
21006            476.380000 7.600000   0.000000   0.000000   500.000000
; MAN
21007            478.160000 7.100000   0.000000   0.000000   500.000000
; MAN
21008            477.200000 9.800000   0.000000   0.000000   500.000000
; MAN
21009            477.800000 9.100000   0.000000   0.000000   500.000000
; MAN
21010            478.805000 7.765000   0.000000   0.000000   500.000000
; MAN
21011            478.850000 10.000000  0.000000   0.000000   500.000000
; MAN
21012            480.660000 8.340000   0.000000   0.000000   500.000000
; MAN
21013            483.420000 6.000000   0.000000   0.000000   500.000000
; MAN
21014            506.720000 5.300000   0.000000   0.000000   500.000000
; MAN
21015            522.990000 5.970000   0.000000   0.000000   500.000000
; MAN
21016            487.190000 9.000000   0.000000   0.000000   500.000000
; MAN
21017            480.450000 7.100000   0.000000   0.000000   500.000000
; MAN
21019            518.580000 15.400000  0.000000   0.000000   500.000000
; MAN
21020            530.000000 8.000000   0.000000   0.000000   500.000000
; MAN
21021            518.140000 12.400000  0.000000   0.000000   500.000000
; MAN
21022            518.000000 10.000000  0.000000   0.000000   500.000000
; MAN
21023            519.140000 14.600000  0.000000   0.000000   500.000000
; MAN
21024            519.760000 11.800000  0.000000   0.000000   500.000000
; MAN
21025            520.340000 6.100000   0.000000   0.000000   500.000000
; MAN
21026            520.840000 8.600000   0.000000   0.000000   500.000000
; MAN
21027            521.930000 7.900000   0.000000   0.000000   500.000000
; MAN
21028            522.259000 10.000000  0.000000   0.000000   500.000000
; MAN
21029            517.090000 8.900000   0.000000   0.000000   500.000000
; MAN
21030            526.270000 5.000000   0.000000   0.000000   500.000000
; MAN
21035            506.370000 11.000000  0.000000   0.000000   500.000000
; MAN
21036            504.970000 18.000000  0.000000   0.000000   500.000000
; MAN
21038            511.720000 7.500000   0.000000   0.000000   500.000000
; MAN
21044            521.810000 12.800000  0.000000   0.000000   500.000000
; MAN
21045            522.570000 12.400000  0.000000   0.000000   500.000000
; MAN
21046            522.820000 10.000000  0.000000   0.000000   500.000000
; MAN
21048            523.200000 7.800000   0.000000   0.000000   500.000000
; MAN
21049            526.260000 5.200000   0.000000   0.000000   500.000000
; MAN
21053            535.490000 5.300000   0.000000   0.000000   500.000000
; DIV
21054            532.690000 5.750000   0.000000   0.000000   500.000000
; MAN
21055            531.010000 8.000000   0.000000   0.000000   500.000000
; MAN
21056            525.620000 5.070000   0.000000   0.000000   500.000000
; MAN
21058            531.010000 3.560000   0.000000   0.000000   500.000000
; MAN
21059            492.740000 8.000000   0.000000   0.000000   500.000000
; MAN
21060            479.120000 13.400000  0.000000   0.000000   500.000000
; MAN
21061            482.180000 7.320000   0.000000   0.000000   500.000000
; MAN
21063            480.134000 11.766000  0.000000   0.000000   500.000000
; MAN
21064            483.630000 7.000000   0.000000   0.000000   500.000000
; MAN
21065            484.660000 10.000000  0.000000   0.000000   500.000000
; MAN
21066            485.640000 9.800000   0.000000   0.000000   500.000000
; MAN
21067            489.200000 8.800000   0.000000   0.000000   500.000000
; MAN
21068            492.200000 8.000000   0.000000   0.000000   500.000000
; MAN
21069            491.000000 9.200000   0.000000   0.000000   500.000000
; MAN
21070            488.110000 7.100000   0.000000   0.000000   500.000000
; MAN
21071            481.960000 6.000000   0.000000   0.000000   500.000000
; DIV
21072            481.290000 9.210000   0.000000   0.000000   500.000000
; MAN
21073            482.770000 6.400000   0.000000   0.000000   500.000000
; MAN
21075            482.750000 7.000000   0.000000   0.000000   500.000000
; MAN
21076            483.990000 7.700000   0.000000   0.000000   500.000000
; MAN
21078            484.780000 7.700000   0.000000   0.000000   500.000000
; MAN
21079            488.100000 6.500000   0.000000   0.000000   500.000000
; MAN
21080            491.190000 7.900000   0.000000   0.000000   500.000000
; MAN
21083            489.930000 6.000000   0.000000   0.000000   500.000000
; MAN
21084            506.300000 7.800000   0.000000   0.000000   500.000000
; MAN
21089            513.990000 8.700000   0.000000   0.000000   500.000000
; MAN
21090            492.880000 11.100000  0.000000   0.000000   500.000000
; MAN
21106            496.000000 9.000000   0.000000   0.000000   500.000000
; MAN
21107            497.290000 9.950000   0.000000   0.000000   500.000000
; MAN
21108            500.780000 9.020000   0.000000   0.000000   500.000000
; MAN
21109            497.770000 10.000000  0.000000   0.000000   500.000000
; MAN
21110            498.110000 8.000000   0.000000   0.000000   500.000000
; MAN
21114            525.870000 8.100000   0.000000   0.000000   500.000000
; MAN
21115            531.400000 7.600000   0.000000   0.000000   500.000000
; MAN
21123            525.300000 5.700000   0.000000   0.000000   500.000000
; MAN
21124            499.760000 8.240000   0.000000   0.000000   500.000000
; MAN
21125            496.122000 11.958000  0.000000   0.000000   500.000000
; MAN
21130            520.100000 12.200000  0.000000   0.000000   500.000000
; MAN
21131            513.020000 9.980000   0.000000   0.000000   500.000000
; MAN
21132            508.470000 8.000000   0.000000   0.000000   500.000000
; MAN
21133            509.070000 9.930000   0.000000   0.000000   500.000000
; MAN
21134            507.220000 7.000000   0.000000   0.000000   500.000000
; MAN
21135            517.230000 8.000000   0.000000   0.000000   500.000000
; MAN
21136            518.640000 15.400000  0.000000   0.000000   500.000000
; MAN
21137            502.220000 12.000000  0.000000   0.000000   500.000000
; MAN
21138            500.590000 11.090000  0.000000   0.000000   500.000000
; MAN
21150            523.580000 5.000000   0.000000   0.000000   500.000000
; MAN
21151            519.070000 6.720000   0.000000   0.000000   500.000000
; MAN
21152            517.560000 4.000000   0.000000   0.000000   500.000000
; MAN
21153            516.750000 7.460000   0.000000   0.000000   500.000000
; MAN
21157            492.000000 8.000000   0.000000   0.000000   500.000000
; MAN
21158            486.460000 8.540000   0.000000   0.000000   500.000000
; MAN
21159            522.130000 12.700000  0.000000   0.000000   500.000000
; MAN
21160            524.250000 11.000000  0.000000   0.000000   500.000000
; MAN
21165            523.100000 8.000000   0.000000   0.000000   500.000000
; MAN
21166            524.570000 8.900000   0.000000   0.000000   500.000000
; MAN
21167            523.225000 12.225000  0.000000   0.000000   500.000000
; MAN
21170            524.750000 8.700000   0.000000   0.000000   500.000000
; MAN
21171            492.980000 15.900000  0.000000   0.000000   500.000000
; MAN
21172            497.026000 11.544000  0.000000   0.000000   500.000000
; MAN
21173            498.570000 11.430000  0.000000   0.000000   500.000000
; MAN
21174            494.020000 21.400000  0.000000   0.000000   500.000000
; MAN
21175            500.030000 15.390000  0.000000   0.000000   500.000000
; DIV
21176            501.980000 6.020000   0.000000   0.000000   500.000000
; MAN
21177            494.700000 12.300000  0.000000   0.000000   500.000000
; MAN
21188            503.810000 8.200000   0.000000   0.000000   500.000000
; MAN
21190            526.360000 13.500000  0.000000   0.000000   500.000000
; MAN
21191            523.360000 9.000000   0.000000   0.000000   500.000000
; MAN
21192            521.480000 14.100000  0.000000   0.000000   500.000000
; MAN
21193            519.920000 18.600000  0.000000   0.000000   500.000000
; MAN
21194            522.400000 9.100000   0.000000   0.000000   500.000000
; MAN
21195            531.150000 6.750000   0.000000   0.000000   500.000000
; MAN
21198            527.910000 12.090000  0.000000   0.000000   500.000000
; MAN
21199            528.350000 12.150000  0.000000   0.000000   500.000000
; MAN
21200            529.970000 5.000000   0.000000   0.000000   500.000000
; MAN
21201            523.400000 8.600000   0.000000   0.000000   500.000000
; MAN
21208            527.730000 6.300000   0.000000   0.000000   500.000000
; MAN
21215            526.670000 10.700000  0.000000   0.000000   500.000000
; MAN
21217            536.490000 11.500000  0.000000   0.000000   500.000000
; MAN
21218            534.910000 11.100000  0.000000   0.000000   500.000000
; MAN
21219            533.340000 10.100000  0.000000   0.000000   500.000000
; MAN
21220            539.270000 7.100000   0.000000   0.000000   500.000000
; MAN
21224            560.600000 5.000000   0.000000   0.000000   500.000000
; MAN
21226            554.410000 4.500000   0.000000   0.000000   500.000000
; MAN
21227            551.610000 4.000000   0.000000   0.000000   500.000000
; MAN
21228            570.630000 4.000000   0.000000   0.000000   500.000000
; MAN
21231            551.630000 10.000000  0.000000   0.000000   500.000000
; MAN
21232            550.608000 10.000000  0.000000   0.000000   500.000000
; MAN
21233            553.720000 10.000000  0.000000   0.000000   500.000000
; MAN
21234            555.550000 10.000000  0.000000   0.000000   500.000000
; MAN
21235            557.280000 10.000000  0.000000   0.000000   500.000000
; MAN
21236            556.670000 10.000000  0.000000   0.000000   500.000000
; DIV
21238            557.910000 9.000000   0.000000   0.000000   500.000000
; MAN
21243            541.520000 8.600000   0.000000   0.000000   500.000000
; MAN
21244            540.800000 11.200000  0.000000   0.000000   500.000000
; MAN
21245            539.520000 13.500000  0.000000   0.000000   500.000000
; MAN
21284            534.440000 10.000000  0.000000   0.000000   500.000000
; MAN
21285            524.590000 13.200000  0.000000   0.000000   500.000000
; MAN
21286            525.900000 9.600000   0.000000   0.000000   500.000000
; MAN
21287            526.600000 10.000000  0.000000   0.000000   500.000000
; MAN
21288            524.500000 17.200000  0.000000   0.000000   500.000000
; MAN
21289            526.010000 10.000000  0.000000   0.000000   500.000000
; MAN
21295            533.480000 6.500000   0.000000   0.000000   500.000000
; MAN
21299            531.090000 5.900000   0.000000   0.000000   500.000000
; MAN
21301            530.290000 7.500000   0.000000   0.000000   500.000000
; MAN
21303            528.700000 6.300000   0.000000   0.000000   500.000000
; MAN
21304            526.290000 7.100000   0.000000   0.000000   500.000000
; MAN
21305            529.860000 7.100000   0.000000   0.000000   500.000000
; MAN
21306            526.650000 6.600000   0.000000   0.000000   500.000000
; MAN
21307            531.720000 10.000000  0.000000   0.000000   500.000000
; MAN
21308            532.340000 10.000000  0.000000   0.000000   500.000000
; MAN
21309            533.150000 10.000000  0.000000   0.000000   500.000000
; MAN
21318            542.970000 11.800000  0.000000   0.000000   500.000000
; MAN
21319            542.300000 10.000000  0.000000   0.000000   500.000000
; MAN
21320            548.000000 10.000000  0.000000   0.000000   500.000000
; MAN
21323            541.100000 10.160000  0.000000   0.000000   500.000000
; MAN
21324            542.230000 8.900000   0.000000   0.000000   500.000000
; MAN
21325            539.890000 15.000000  0.000000   0.000000   500.000000
; MAN
21326            538.980000 15.000000  0.000000   0.000000   500.000000
; MAN
21327            538.520000 13.480000  0.000000   0.000000   500.000000
; MAN
21328            538.370000 14.000000  0.000000   0.000000   500.000000
; MAN
21331            522.730000 8.700000   0.000000   0.000000   500.000000
; MAN
21343            494.920000 10.000000  0.000000   0.000000   500.000000
; MAN
21344            495.610000 8.190000   0.000000   0.000000   500.000000
; MAN
21353            523.150000 9.000000   0.000000   0.000000   500.000000
; MAN
21359            483.140000 5.700000   0.000000   0.000000   500.000000
; MAN
21362            480.200000 12.600000  0.000000   0.000000   500.000000
; MAN
21363            484.470000 9.900000   0.000000   0.000000   500.000000
; MAN
21369            549.920000 9.000000   0.000000   0.000000   500.000000
; MAN
21430            603.800000 10.000000  0.000000   0.000000   500.000000
; MAN
21431            602.920000 10.000000  0.000000   0.000000   500.000000
; MAN
21480            687.630000 2.920000   0.000000   0.000000   500.000000
; MAN
21481            684.860000 3.690000   0.000000   0.000000   500.000000
; MAN
21488            583.090000 10.000000  0.000000   0.000000   500.000000
; MAN
21489            575.170000 10.000000  0.000000   0.000000   500.000000
; MAN
21491            515.090000 5.100000   0.000000   0.000000   500.000000
; MAN
21492            519.390000 4.600000   0.000000   0.000000   500.000000
; MAN
21493            515.920000 5.100000   0.000000   0.000000   500.000000
; MAN
21496            747.210000 9.790000   0.000000   0.000000   500.000000
; MAN
21497            745.800000 8.200000   0.000000   0.000000   500.000000
; MAN
21501            706.041000 31.959000  0.000000   0.000000   500.000000
; MAN
21502            642.660000 6.000000   0.000000   0.000000   500.000000
; MAN
21503            540.950000 5.000000   0.000000   0.000000   500.000000
; MAN
21506            654.800000 8.000000   0.000000   0.000000   500.000000
; MAN
21507            565.990000 6.500000   0.000000   0.000000   500.000000
; MAN
21508            699.690000 6.110000   0.000000   0.000000   500.000000
; MAN
21509            692.330000 18.000000  0.000000   0.000000   500.000000
; MAN
21514            623.851000 10.000000  0.000000   0.000000   500.000000
; MAN
21515            596.291000 10.000000  0.000000   0.000000   500.000000
; MAN
21516            694.780000 10.000000  0.000000   0.000000   500.000000
; MAN
21517            691.570000 8.000000   0.000000   0.000000   500.000000
; MAN
21518            704.030000 10.000000  0.000000   0.000000   500.000000
; MAN
21519            702.490000 9.000000   0.000000   0.000000   500.000000
; MAN
21528            706.630000 8.000000   0.000000   0.000000   500.000000
; MAN
21529            705.630000 8.500000   0.000000   0.000000   500.000000
; MAN
21532            697.500000 12.000000  0.000000   0.000000   500.000000
; MAN
21535            699.300000 10.000000  0.000000   0.000000   500.000000
; MAN
21537            705.730000 10.000000  0.000000   0.000000   500.000000
; MAN
21538            700.860000 10.000000  0.000000   0.000000   500.000000
; MAN