[TITLE]
Scenario Run :  BASE

[OPTIONS]
;Option and Files Scenario Set: BASE, Base Simulation Options
FLOW_UNITS	CFS
INFILTRATION	HORTON
FLOW_ROUTING	DYNWAVE
ALLOW_PONDING	YES
DRY_DAYS	0.000000
SKIP_STEADY_STATE 	NO
IGNORE_RAINFALL	NO
IGNORE_SNOWMELT	NO
IGNORE_GROUNDWATER	NO
IGNORE_QUALITY	NO
FORCE_MAIN_EQUATION	H-W
LINK_OFFSETS	DEPTH
MIN_SLOPE	0.000000
START_DATE	01/01/2000
START_TIME	00:00
END_DATE	01/02/2000
END_TIME	00:00
REPORT_START_DATE	01/01/2000
REPORT_START_TIME	00:00
SWEEP_START	01/01
SWEEP_END	12/31
WET_STEP	00:06:00
DRY_STEP	01:00:00
ROUTING_STEP	30
REPORT_STEP	00:03:00
INERTIAL_DAMPING	NONE
VARIABLE_STEP	0.750000
MINIMUM_STEP	0.5
LENGTHENING_STEP	10
MIN_SURFAREA	0.000000
NORMAL_FLOW_LIMITED	BOTH
MAX_TRIALS	8
HEAD_TOLERANCE	0.000100

[FILES]

[RAINGAGES]

[HYDROGRAPHS]

[EVAPORATION]
CONSTANT	0.000000
DRY_ONLY	NO

[TEMPERATURE]

[ADJUSTMENTS]

[SUBCATCHMENTS]

[SUBAREAS]

[INFILTRATION]

[AQUIFERS]

[GROUNDWATER]

[GWF]

[SNOWPACKS]

[JUNCTIONS]
0017A_JUNCTION	0.000000	10.000000	0.000000	100000.000000	0.000000
0017B_JUNCTION	0.000000	10.000000	0.000000	100000.000000	0.000000
0018A_JUNCTION	0.000000	10.000000	0.000000	100000.000000	0.000000
0018B_JUNCTION	0.000000	10.000000	0.000000	100000.000000	0.000000
0019A_JUNCTION	19.140000	10.000000	0.000000	100000.000000	0.000000
0019B_JUNCTION	19.140000	10.000000	0.000000	100000.000000	0.000000
0020A_JUNCTION	0.000000	10.000000	0.000000	100000.000000	0.000000
0020B_JUNCTION	0.000000	10.000000	0.000000	100000.000000	0.000000
0021A_JUNCTION	0.000000	10.000000	0.000000	100000.000000	0.000000
0021B_JUNCTION	0.000000	10.000000	0.000000	100000.000000	0.000000
0022A_JUNCTION	0.000000	10.000000	0.000000	100000.000000	0.000000
0022B_JUNCTION	0.000000	10.000000	0.000000	100000.000000	0.000000
0023A_JUNCTION	0.000000	10.000000	0.000000	100000.000000	0.000000
0023B_JUNCTION	0.000000	10.000000	0.000000	100000.000000	0.000000
0024A_JUNCTION	0.000000	10.000000	0.000000	100000.000000	0.000000
0024B_JUNCTION	0.000000	10.000000	0.000000	100000.000000	0.000000
0025A_JUNCTION	0.000000	10.000000	0.000000	100000.000000	0.000000
0025B_JUNCTION	0.000000	10.000000	0.000000	100000.000000	0.000000
0026A_JUNCTION	0.000000	10.000000	0.000000	100000.000000	0.000000
0026B_JUNCTION	0.000000	10.000000	0.000000	100000.000000	0.000000
0027_JUNCTION	0.000000	10.000000	0.000000	100000.000000	0.000000
0028A_JUNCTION	0.000000	10.000000	0.000000	100000.000000	0.000000
0028B_JUNCTION	0.000000	10.000000	0.000000	100000.000000	0.000000
0029A_JUNCTION	0.000000	10.000000	0.000000	100000.000000	0.000000
0029B_JUNCTION	0.000000	10.000000	0.000000	100000.000000	0.000000
0030A_JUNCTION	0.000000	10.000000	0.000000	100000.000000	0.000000
0030B_JUNCTION	0.000000	10.000000	0.000000	100000.000000	0.000000
0031A_JUNCTION	0.000000	10.000000	0.000000	100000.000000	0.000000
0031B_JUNCTION	0.000000	10.000000	0.000000	100000.000000	0.000000
0032A_JUNCTION	0.000000	10.000000	0.000000	100000.000000	0.000000
0032B_JUNCTION	0.000000	10.000000	0.000000	100000.000000	0.000000
0033A_JUNCTION	0.000000	10.000000	0.000000	100000.000000	0.000000
0033B_JUNCTION	0.000000	10.000000	0.000000	100000.000000	0.000000
0034A_JUNCTION	0.000000	10.000000	0.000000	100000.000000	0.000000
0034B_JUNCTION	0.000000	10.000000	0.000000	100000.000000	0.000000
0035A_JUNCTION	0.000000	10.000000	0.000000	100000.000000	0.000000
0035B_JUNCTION	0.000000	10.000000	0.000000	100000.000000	0.000000
0036A_JUNCTION	0.000000	10.000000	0.000000	100000.000000	0.000000
0036B_JUNCTION	0.000000	10.000000	0.000000	100000.000000	0.000000
0037A_JUNCTION	0.000000	10.000000	0.000000	100000.000000	0.000000
0037B_JUNCTION	0.000000	10.000000	0.000000	100000.000000	0.000000
0038A_JUNCTION	0.000000	10.000000	0.000000	100000.000000	0.000000
0038B_JUNCTION	0.000000	10.000000	0.000000	100000.000000	0.000000
0039A_JUNCTION	0.000000	10.000000	0.000000	100000.000000	0.000000
0039B_JUNCTION	0.000000	10.000000	0.000000	100000.000000	0.000000
0040A_JUNCTION	0.000000	10.000000	0.000000	100000.000000	0.000000
0040B_JUNCTION	0.000000	10.000000	0.000000	100000.000000	0.000000
0041A_JUNCTION	23.530000	10.000000	0.000000	100000.000000	0.000000
0041B_JUNCTION	23.530000	10.000000	0.000000	100000.000000	0.000000
0042A_JUNCTION	14.500000	10.000000	0.000000	100000.000000	0.000000
0042B_JUNCTION	14.500000	10.000000	0.000000	100000.000000	0.000000
0043A_JUNCTION	0.000000	10.000000	0.000000	100000.000000	0.000000
0043B_JUNCTION	0.000000	10.000000	0.000000	100000.000000	0.000000
0044A_JUNCTION	0.000000	10.000000	0.000000	100000.000000	0.000000
0044B_JUNCTION	0.000000	10.000000	0.000000	100000.000000	0.000000
0045A_JUNCTION	0.000000	10.000000	0.000000	100000.000000	0.000000
0045B_JUNCTION	0.000000	10.000000	0.000000	100000.000000	0.000000
0046A_JUNCTION	0.000000	10.000000	0.000000	100000.000000	0.000000
0046B_JUNCTION	0.000000	10.000000	0.000000	100000.000000	0.000000
0047A_JUNCTION	0.000000	10.000000	0.000000	100000.000000	0.000000
0047B_JUNCTION	0.000000	10.000000	0.000000	100000.000000	0.000000
0048A_JUNCTION	0.000000	10.000000	0.000000	100000.000000	0.000000
0048B_JUNCTION	0.000000	10.000000	0.000000	100000.000000	0.000000
0049A_JUNCTION	0.000000	10.000000	0.000000	100000.000000	0.000000
0049B_JUNCTION	0.000000	10.000000	0.000000	100000.000000	0.000000
0050A_JUNCTION	0.000000	10.000000	0.000000	100000.000000	0.000000
0050B_JUNCTION	0.000000	10.000000	0.000000	100000.000000	0.000000
0051A_JUNCTION	0.000000	10.000000	0.000000	100000.000000	0.000000
0051B_JUNCTION	0.000000	10.000000	0.000000	100000.000000	0.000000
0053A_JUNCTION	21.000000	10.000000	0.000000	100000.000000	0.000000
0053B_JUNCTION	21.000000	10.000000	0.000000	100000.000000	0.000000
0054A_JUNCTION	0.000000	10.000000	0.000000	100000.000000	0.000000
0054B_JUNCTION	0.000000	10.000000	0.000000	100000.000000	0.000000
0055A_JUNCTION	4.500000	10.000000	0.000000	100000.000000	0.000000
0055B_JUNCTION	4.500000	10.000000	0.000000	100000.000000	0.000000
0056A_JUNCTION	0.000000	10.000000	0.000000	100000.000000	0.000000
0056B_JUNCTION	0.000000	10.000000	0.000000	100000.000000	0.000000
0057A_JUNCTION	0.000000	10.000000	0.000000	100000.000000	0.000000
0057B_JUNCTION	0.000000	10.000000	0.000000	100000.000000	0.000000
0058A_JUNCTION	0.000000	10.000000	0.000000	100000.000000	0.000000
0058B_JUNCTION	0.000000	10.000000	0.000000	100000.000000	0.000000
0060A_JUNCTION	0.000000	10.000000	0.000000	100000.000000	0.000000
0060B_JUNCTION	0.000000	10.000000	0.000000	100000.000000	0.000000
0063A_JUNCTION	0.000000	10.000000	0.000000	100000.000000	0.000000
0063B_JUNCTION	0.000000	10.000000	0.000000	100000.000000	0.000000
0064A_JUNCTION	12.250000	10.000000	0.000000	100000.000000	0.000000
0064B_JUNCTION	12.250000	10.000000	0.000000	100000.000000	0.000000
0064C_JUNCTION	12.250000	10.000000	0.000000	100000.000000	0.000000
0065A_JUNCTION	0.000000	10.000000	0.000000	100000.000000	0.000000
0065B_JUNCTION	0.000000	10.000000	0.000000	100000.000000	0.000000
0066A_JUNCTION	0.000000	10.000000	0.000000	100000.000000	0.000000
0066B_JUNCTION	0.000000	10.000000	0.000000	100000.000000	0.000000
0070A_JUNCTION	0.000000	10.000000	0.000000	100000.000000	0.000000
0070B_JUNCTION	0.000000	10.000000	0.000000	100000.000000	0.000000
0071A_JUNCTION	0.000000	10.000000	0.000000	100000.000000	0.000000
0071B_JUNCTION	0.000000	10.000000	0.000000	100000.000000	0.000000
0072A_JUNCTION	0.000000	10.000000	0.000000	100000.000000	0.000000
0072B_JUNCTION	0.000000	10.000000	0.000000	100000.000000	0.000000
0073A_JUNCTION	0.000000	10.000000	0.000000	100000.000000	0.000000
0073B_JUNCTION	0.000000	10.000000	0.000000	100000.000000	0.000000
0078A_JUNCTION	-1.000000	10.000000	0.000000	100000.000000	0.000000
0078B_JUNCTION	-1.000000	10.000000	0.000000	100000.000000	0.000000
0078C_JUNCTION	-1.000000	10.000000	0.000000	100000.000000	0.000000
0080A_JUNCTION	0.000000	10.000000	0.000000	100000.000000	0.000000
0080B_JUNCTION	0.000000	10.000000	0.000000	100000.000000	0.000000
0082A_JUNCTION	0.000000	10.000000	0.000000	100000.000000	0.000000
0082B_JUNCTION	0.000000	10.000000	0.000000	100000.000000	0.000000
0084A_JUNCTION	0.000000	10.000000	0.000000	100000.000000	0.000000
0084B_JUNCTION	0.000000	10.000000	0.000000	100000.000000	0.000000
0087A_JUNCTION	-1.200000	10.000000	0.000000	100000.000000	0.000000
0087B_JUNCTION	-1.200000	10.000000	0.000000	100000.000000	0.000000
0087C_JUNCTION	-1.200000	10.000000	0.000000	100000.000000	0.000000
0091A_JUNCTION	0.000000	10.000000	0.000000	100000.000000	0.000000
0091B_JUNCTION	0.000000	10.000000	0.000000	100000.000000	0.000000
0096A_JUNCTION	0.000000	10.000000	0.000000	100000.000000	0.000000
0096B_JUNCTION	0.000000	10.000000	0.000000	100000.000000	0.000000
0097A_JUNCTION	0.000000	10.000000	0.000000	100000.000000	0.000000
0097B_JUNCTION	0.000000	10.000000	0.000000	100000.000000	0.000000
0099A_JUNCTION	0.000000	10.000000	0.000000	100000.000000	0.000000
0099B_JUNCTION	0.000000	10.000000	0.000000	100000.000000	0.000000
0100A_JUNCTION	0.000000	10.000000	0.000000	100000.000000	0.000000
0100B_JUNCTION	0.000000	10.000000	0.000000	100000.000000	0.000000
0102A_JUNCTION	0.000000	10.000000	0.000000	100000.000000	0.000000
0102B_JUNCTION	0.000000	10.000000	0.000000	100000.000000	0.000000
0103A_JUNCTION	0.000000	10.000000	0.000000	100000.000000	0.000000
0103B_JUNCTION	0.000000	10.000000	0.000000	100000.000000	0.000000
0104A_JUNCTION	0.000000	10.000000	0.000000	100000.000000	0.000000
0104B_JUNCTION	0.000000	10.000000	0.000000	100000.000000	0.000000
0106A_JUNCTION	0.000000	10.000000	0.000000	100000.000000	0.000000
0106B_JUNCTION	0.000000	10.000000	0.000000	100000.000000	0.000000
0107A_JUNCTION	0.000000	10.000000	0.000000	100000.000000	0.000000
0107B_JUNCTION	0.000000	10.000000	0.000000	100000.000000	0.000000
0108A_JUNCTION	18.500000	10.000000	0.000000	100000.000000	0.000000
0108B_JUNCTION	18.500000	10.000000	0.000000	100000.000000	0.000000
0108C_JUNCTION	18.500000	10.000000	0.000000	100000.000000	0.000000
0109A_JUNCTION	0.000000	10.000000	0.000000	100000.000000	0.000000
0109B_JUNCTION	0.000000	10.000000	0.000000	100000.000000	0.000000
0110A_JUNCTION	0.000000	10.000000	0.000000	100000.000000	0.000000
0110B_JUNCTION	0.000000	10.000000	0.000000	100000.000000	0.000000
0111_JUNCTION	0.000000	10.000000	0.000000	100000.000000	0.000000
0112A_JUNCTION	0.000000	10.000000	0.000000	100000.000000	0.000000
0112B_JUNCTION	0.000000	10.000000	0.000000	100000.000000	0.000000
0114A_JUNCTION	0.000000	10.000000	0.000000	100000.000000	0.000000
0114B_JUNCTION	0.000000	10.000000	0.000000	100000.000000	0.000000
0115A_JUNCTION	0.000000	10.000000	0.000000	100000.000000	0.000000
0115B_JUNCTION	0.000000	10.000000	0.000000	100000.000000	0.000000
0116A_JUNCTION	0.000000	10.000000	0.000000	100000.000000	0.000000
0116B_JUNCTION	0.000000	10.000000	0.000000	100000.000000	0.000000
0117A_JUNCTION	0.000000	10.000000	0.000000	100000.000000	0.000000
0117B_JUNCTION	0.000000	10.000000	0.000000	100000.000000	0.000000
0118A_JUNCTION	0.000000	10.000000	0.000000	100000.000000	0.000000
0118B_JUNCTION	0.000000	10.000000	0.000000	100000.000000	0.000000
0120A_JUNCTION	0.000000	10.000000	0.000000	100000.000000	0.000000
0120B_JUNCTION	0.000000	10.000000	0.000000	100000.000000	0.000000
0121A_JUNCTION	0.000000	10.000000	0.000000	100000.000000	0.000000
0121B_JUNCTION	0.000000	10.000000	0.000000	100000.000000	0.000000
0123A_JUNCTION	0.000000	10.000000	0.000000	100000.000000	0.000000
0123B_JUNCTION	0.000000	10.000000	0.000000	100000.000000	0.000000
0123C_JUNCTION	0.000000	10.000000	0.000000	100000.000000	0.000000
0127A_JUNCTION	0.000000	10.000000	0.000000	100000.000000	0.000000
0127B_JUNCTION	0.000000	10.000000	0.000000	100000.000000	0.000000
0128A_JUNCTION	0.000000	10.000000	0.000000	100000.000000	0.000000
0128B_JUNCTION	0.000000	10.000000	0.000000	100000.000000	0.000000
0129A_JUNCTION	0.000000	10.000000	0.000000	100000.000000	0.000000
0129B_JUNCTION	0.000000	10.000000	0.000000	100000.000000	0.000000
0130A_JUNCTION	0.000000	10.000000	0.000000	100000.000000	0.000000
0130B_JUNCTION	0.000000	10.000000	0.000000	100000.000000	0.000000
0133A_JUNCTION	0.000000	10.000000	0.000000	100000.000000	0.000000
0133B_JUNCTION	0.000000	10.000000	0.000000	100000.000000	0.000000
0135A_JUNCTION	10.500000	10.000000	0.000000	100000.000000	0.000000
0135B_JUNCTION	10.500000	10.000000	0.000000	100000.000000	0.000000
0137A_JUNCTION	0.000000	10.000000	0.000000	100000.000000	0.000000
0137B_JUNCTION	0.000000	10.000000	0.000000	100000.000000	0.000000
0139A_JUNCTION	0.000000	10.000000	0.000000	100000.000000	0.000000
0139B_JUNCTION	0.000000	10.000000	0.000000	100000.000000	0.000000
0140A_JUNCTION	0.000000	10.000000	0.000000	100000.000000	0.000000
0140B_JUNCTION	0.000000	10.000000	0.000000	100000.000000	0.000000
0141A_JUNCTION	0.000000	10.000000	0.000000	100000.000000	0.000000
0141B_JUNCTION	0.000000	10.000000	0.000000	100000.000000	0.000000
0144A_JUNCTION	0.000000	10.000000	0.000000	100000.000000	0.000000
0144B_JUNCTION	0.000000	10.000000	0.000000	100000.000000	0.000000
0148A_JUNCTION	0.000000	10.000000	0.000000	100000.000000	0.000000
0148B_JUNCTION	0.000000	10.000000	0.000000	100000.000000	0.000000
0150A_JUNCTION	0.000000	10.000000	0.000000	100000.000000	0.000000
0150B_JUNCTION	0.000000	10.000000	0.000000	100000.000000	0.000000
0153A_JUNCTION	0.000000	10.000000	0.000000	100000.000000	0.000000
0153B_JUNCTION	0.000000	10.000000	0.000000	100000.000000	0.000000
0154A_JUNCTION	0.000000	10.000000	0.000000	100000.000000	0.000000
0154B_JUNCTION	0.000000	10.000000	0.000000	100000.000000	0.000000
0155A_JUNCTION	0.000000	10.000000	0.000000	100000.000000	0.000000
0155B_JUNCTION	0.000000	10.000000	0.000000	100000.000000	0.000000
0156A_JUNCTION	0.000000	10.000000	0.000000	100000.000000	0.000000
0156B_JUNCTION	0.000000	10.000000	0.000000	100000.000000	0.000000
0157A_JUNCTION	0.000000	10.000000	0.000000	100000.000000	0.000000
0157B_JUNCTION	0.000000	10.000000	0.000000	100000.000000	0.000000
0158A_JUNCTION	0.000000	10.000000	0.000000	100000.000000	0.000000
0158B_JUNCTION	0.000000	10.000000	0.000000	100000.000000	0.000000
0159A_JUNCTION	0.000000	10.000000	0.000000	100000.000000	0.000000
0159B_JUNCTION	0.000000	10.000000	0.000000	100000.000000	0.000000
0160A_JUNCTION	0.000000	10.000000	0.000000	100000.000000	0.000000
0160B_JUNCTION	0.000000	10.000000	0.000000	100000.000000	0.000000
0161A_JUNCTION	0.000000	10.000000	0.000000	100000.000000	0.000000
0161B_JUNCTION	0.000000	10.000000	0.000000	100000.000000	0.000000
0162A_JUNCTION	0.000000	10.000000	0.000000	100000.000000	0.000000
0162B_JUNCTION	0.000000	10.000000	0.000000	100000.000000	0.000000
0163A_JUNCTION	0.000000	10.000000	0.000000	100000.000000	0.000000
0163B_JUNCTION	0.000000	10.000000	0.000000	100000.000000	0.000000
0164A_JUNCTION	0.000000	10.000000	0.000000	100000.000000	0.000000
0164B_JUNCTION	0.000000	10.000000	0.000000	100000.000000	0.000000
0165A_JUNCTION	0.000000	10.000000	0.000000	100000.000000	0.000000
0165B_JUNCTION	0.000000	10.000000	0.000000	100000.000000	0.000000
0166A_JUNCTION	0.000000	10.000000	0.000000	100000.000000	0.000000
0166B_JUNCTION	0.000000	10.000000	0.000000	100000.000000	0.000000
0173A_JUNCTION	0.000000	10.000000	0.000000	100000.000000	0.000000
0173B_JUNCTION	0.000000	10.000000	0.000000	100000.000000	0.000000
0173C_JUNCTION	0.000000	10.000000	0.000000	100000.000000	0.000000
J-10	23.520000	0.000000	0.000000	100000.000000	0.000000
J-1003	24.020000	0.000000	0.000000	100000.000000	0.000000
J-1006	23.510000	0.000000	0.000000	100000.000000	0.000000
J-1021	22.910000	0.000000	0.000000	100000.000000	0.000000
J-1022	23.050000	0.000000	0.000000	100000.000000	0.000000
J-1031	22.730000	0.000000	0.000000	100000.000000	0.000000
J-1032	22.560000	0.000000	0.000000	100000.000000	0.000000
J-1033	21.770000	0.000000	0.000000	100000.000000	0.000000
J-1041	21.900000	0.000000	0.000000	100000.000000	0.000000
J-1042	18.000000	0.000000	0.000000	100000.000000	0.000000
J-1043	22.640000	0.000000	0.000000	100000.000000	0.000000
J-1044	22.210000	0.000000	0.000000	100000.000000	0.000000
J-1045	23.110000	0.000000	0.000000	100000.000000	0.000000
J-1046	22.570000	0.000000	0.000000	100000.000000	0.000000
J-1047	22.510000	0.000000	0.000000	100000.000000	0.000000
J-1048	22.280000	0.000000	0.000000	100000.000000	0.000000
J-1049	22.760000	0.000000	0.000000	100000.000000	0.000000
J-1050	23.120000	0.000000	0.000000	100000.000000	0.000000
J-1051	23.220000	0.000000	0.000000	100000.000000	0.000000
J-1053	21.910000	0.000000	0.000000	100000.000000	0.000000
J-1054	21.210000	0.000000	0.000000	100000.000000	0.000000
J-1056	18.490000	0.000000	0.000000	100000.000000	0.000000
J-1060	24.880000	0.000000	0.000000	100000.000000	0.000000
J-1061	24.880000	0.000000	0.000000	100000.000000	0.000000
J-1062	13.890000	0.000000	0.000000	100000.000000	0.000000
J-1063	19.380000	0.000000	0.000000	100000.000000	0.000000
J-1064	19.480000	0.000000	0.000000	100000.000000	0.000000
J-1065	19.240000	0.000000	0.000000	100000.000000	0.000000
J-1066	16.800000	0.000000	0.000000	100000.000000	0.000000
J-1067	30.000000	0.000000	0.000000	100000.000000	0.000000
J-1068	12.190000	0.000000	0.000000	100000.000000	0.000000
J-1069	26.000000	0.000000	0.000000	100000.000000	0.000000
J-1070	19.250000	0.000000	0.000000	100000.000000	0.000000
J-1071	18.260000	0.000000	0.000000	100000.000000	0.000000
J-1072	26.000000	0.000000	0.000000	100000.000000	0.000000
J-1073	18.490000	0.000000	0.000000	100000.000000	0.000000
J-1074	18.610000	0.000000	0.000000	100000.000000	0.000000
J-1075	19.520000	0.000000	0.000000	100000.000000	0.000000
J-1076	37.000000	0.000000	0.000000	100000.000000	0.000000
J-1077	20.370000	0.000000	0.000000	100000.000000	0.000000
J-1078	20.470000	0.000000	0.000000	100000.000000	0.000000
J-1079	20.150000	0.000000	0.000000	100000.000000	0.000000
J-1080	19.450000	0.000000	0.000000	100000.000000	0.000000
J-1081	20.170000	0.000000	0.000000	100000.000000	0.000000
J-1082	18.730000	0.000000	0.000000	100000.000000	0.000000
J-1083	18.800000	0.000000	0.000000	100000.000000	0.000000
J-1084	20.990000	0.000000	0.000000	100000.000000	0.000000
J-1085	20.800000	0.000000	0.000000	100000.000000	0.000000
J-1086	20.860000	0.000000	0.000000	100000.000000	0.000000
J-1087	7.020000	0.000000	0.000000	100000.000000	0.000000
J-1088	21.580000	0.000000	0.000000	100000.000000	0.000000
J-1089	7.300000	0.000000	0.000000	100000.000000	0.000000
J-1090	16.900000	0.000000	0.000000	100000.000000	0.000000
J-1091	17.460000	0.000000	0.000000	100000.000000	0.000000
J-1092	17.260000	0.000000	0.000000	100000.000000	0.000000
J-1093	16.930000	0.000000	0.000000	100000.000000	0.000000
J-1094	15.810000	0.000000	0.000000	100000.000000	0.000000
J-1095	18.210000	0.000000	0.000000	100000.000000	0.000000
J-1096	21.580000	0.000000	0.000000	100000.000000	0.000000
J-1097	19.300000	0.000000	0.000000	100000.000000	0.000000
J-1098	16.000000	0.000000	0.000000	100000.000000	0.000000
J-1099	13.400000	0.000000	0.000000	100000.000000	0.000000
J-11	24.734142	0.000000	0.000000	100000.000000	0.000000
J-1100	18.600000	0.000000	0.000000	100000.000000	0.000000
J-1101	31.700000	0.000000	0.000000	100000.000000	0.000000
J-1726	29.860000	0.000000	0.000000	100000.000000	0.000000
J-1727	31.510000	0.000000	0.000000	100000.000000	0.000000
J-1728	31.420000	0.000000	0.000000	100000.000000	0.000000
J-1729	31.080000	0.000000	0.000000	100000.000000	0.000000
J-1730	33.380000	0.000000	0.000000	100000.000000	0.000000
J-1731	33.670000	0.000000	0.000000	100000.000000	0.000000
J-1732	33.390000	0.000000	0.000000	100000.000000	0.000000
J-1733	30.680000	0.000000	0.000000	100000.000000	0.000000
J-1734	25.470000	0.000000	0.000000	100000.000000	0.000000
J-1735	31.940000	0.000000	0.000000	100000.000000	0.000000
J-1736	26.640000	0.000000	0.000000	100000.000000	0.000000
J-1737	28.770000	0.000000	0.000000	100000.000000	0.000000
J-1738	31.530000	0.000000	0.000000	100000.000000	0.000000
J-1739	30.000000	0.000000	0.000000	100000.000000	0.000000
J-1740	25.920000	0.000000	0.000000	100000.000000	0.000000
J-1741	23.260000	0.000000	0.000000	100000.000000	0.000000
J-1742	25.400000	0.000000	0.000000	100000.000000	0.000000
J-1743	31.000000	0.000000	0.000000	100000.000000	0.000000
J-1744	28.390000	0.000000	0.000000	100000.000000	0.000000
J-1745	35.080000	0.000000	0.000000	100000.000000	0.000000
J-1746	36.350000	0.000000	0.000000	100000.000000	0.000000
J-1747	32.020000	0.000000	0.000000	100000.000000	0.000000
J-1748	34.140000	0.000000	0.000000	100000.000000	0.000000
J-1749	33.970000	0.000000	0.000000	100000.000000	0.000000
J-1750	34.220000	0.000000	0.000000	100000.000000	0.000000
J-1751	34.260000	0.000000	0.000000	100000.000000	0.000000
J-1752	33.030000	0.000000	0.000000	100000.000000	0.000000
J-1753	29.590000	0.000000	0.000000	100000.000000	0.000000
J-1754	33.120000	0.000000	0.000000	100000.000000	0.000000
J-1755	29.760000	0.000000	0.000000	100000.000000	0.000000
J-1756	28.560000	0.000000	0.000000	100000.000000	0.000000
J-1757	31.100000	0.000000	0.000000	100000.000000	0.000000
J-1758	31.300000	0.000000	0.000000	100000.000000	0.000000
J-1759	27.400000	0.000000	0.000000	100000.000000	0.000000
J-1760	29.920000	0.000000	0.000000	100000.000000	0.000000
J-1761	27.020000	0.000000	0.000000	100000.000000	0.000000
J-1762	27.550000	0.000000	0.000000	100000.000000	0.000000
J-1763	28.990000	0.000000	0.000000	100000.000000	0.000000
J-1764	30.730000	0.000000	0.000000	100000.000000	0.000000
J-1765	30.330000	0.000000	0.000000	100000.000000	0.000000
J-1766	27.090000	0.000000	0.000000	100000.000000	0.000000
J-1767	26.090000	0.000000	0.000000	100000.000000	0.000000
J-1768	29.220000	0.000000	0.000000	100000.000000	0.000000
J-1769	29.930000	0.000000	0.000000	100000.000000	0.000000
J-1770	29.890000	0.000000	0.000000	100000.000000	0.000000
J-1771	30.110000	0.000000	0.000000	100000.000000	0.000000
J-1772	29.860000	0.000000	0.000000	100000.000000	0.000000
J-1773	29.670000	0.000000	0.000000	100000.000000	0.000000
J-1774	28.970000	0.000000	0.000000	100000.000000	0.000000
J-1775	31.240000	0.000000	0.000000	100000.000000	0.000000
J-1776	33.120000	0.000000	0.000000	100000.000000	0.000000
J-1777	32.770000	0.000000	0.000000	100000.000000	0.000000
J-1778	26.230000	0.000000	0.000000	100000.000000	0.000000
J-1779	26.160000	0.000000	0.000000	100000.000000	0.000000
J-1780	25.910000	0.000000	0.000000	100000.000000	0.000000
J-1781	26.700000	0.000000	0.000000	100000.000000	0.000000
J-1782	26.760000	0.000000	0.000000	100000.000000	0.000000
J-1783	25.890000	0.000000	0.000000	100000.000000	0.000000
J-1784	25.910000	0.000000	0.000000	100000.000000	0.000000
J-1785	25.990000	0.000000	0.000000	100000.000000	0.000000
J-1786	26.020000	0.000000	0.000000	100000.000000	0.000000
J-1787	26.360000	0.000000	0.000000	100000.000000	0.000000
J-1788	26.860000	0.000000	0.000000	100000.000000	0.000000
J-1789	25.570000	0.000000	0.000000	100000.000000	0.000000
J-1790	25.550000	0.000000	0.000000	100000.000000	0.000000
J-1791	25.630000	0.000000	0.000000	100000.000000	0.000000
J-1792	25.380000	0.000000	0.000000	100000.000000	0.000000
J-1793	25.770000	0.000000	0.000000	100000.000000	0.000000
J-1794	29.700000	0.000000	0.000000	100000.000000	0.000000
J-1795	29.940000	0.000000	0.000000	100000.000000	0.000000
J-1796	28.160000	0.000000	0.000000	100000.000000	0.000000
J-1797	28.190000	0.000000	0.000000	100000.000000	0.000000
J-1798	29.510000	0.000000	0.000000	100000.000000	0.000000
J-1799	30.110000	0.000000	0.000000	100000.000000	0.000000
J-1800	29.060000	0.000000	0.000000	100000.000000	0.000000
J-1801	28.970000	0.000000	0.000000	100000.000000	0.000000
J-1802	28.810000	0.000000	0.000000	100000.000000	0.000000
J-1803	29.510000	0.000000	0.000000	100000.000000	0.000000
J-1804	26.700000	0.000000	0.000000	100000.000000	0.000000
J-1805	28.830000	0.000000	0.000000	100000.000000	0.000000
J-1806	28.810000	0.000000	0.000000	100000.000000	0.000000
J-1807	29.140000	0.000000	0.000000	100000.000000	0.000000
J-1808	29.640000	0.000000	0.000000	100000.000000	0.000000
J-1809	32.060000	0.000000	0.000000	100000.000000	0.000000
J-1810	27.090000	0.000000	0.000000	100000.000000	0.000000
J-1811	26.820000	0.000000	0.000000	100000.000000	0.000000
J-1812	28.410000	0.000000	0.000000	100000.000000	0.000000
J-1813	31.190000	0.000000	0.000000	100000.000000	0.000000
J-1814	31.810000	0.000000	0.000000	100000.000000	0.000000
J-1815	31.590000	0.000000	0.000000	100000.000000	0.000000
J-1816	27.910000	0.000000	0.000000	100000.000000	0.000000
J-1817	29.160000	0.000000	0.000000	100000.000000	0.000000
J-1818	30.150000	0.000000	0.000000	100000.000000	0.000000
J-1819	29.310000	0.000000	0.000000	100000.000000	0.000000
J-1820	22.540000	0.000000	0.000000	100000.000000	0.000000
J-1821	22.030000	0.000000	0.000000	100000.000000	0.000000
J-1822	29.640000	0.000000	0.000000	100000.000000	0.000000
J-1823	29.360000	0.000000	0.000000	100000.000000	0.000000
J-1824	29.530000	0.000000	0.000000	100000.000000	0.000000
J-1825	29.280000	0.000000	0.000000	100000.000000	0.000000
J-1826	26.970000	0.000000	0.000000	100000.000000	0.000000
J-1827	26.880000	0.000000	0.000000	100000.000000	0.000000
J-1828	23.360000	0.000000	0.000000	100000.000000	0.000000
J-1829	23.890000	0.000000	0.000000	100000.000000	0.000000
J-1830	29.400000	0.000000	0.000000	100000.000000	0.000000
J-1831	28.950000	0.000000	0.000000	100000.000000	0.000000
J-1832	29.010000	0.000000	0.000000	100000.000000	0.000000
J-1833	29.640000	0.000000	0.000000	100000.000000	0.000000
J-1834	25.390000	0.000000	0.000000	100000.000000	0.000000
J-1835	25.160000	0.000000	0.000000	100000.000000	0.000000
J-1836	25.520000	0.000000	0.000000	100000.000000	0.000000
J-1838	28.150000	0.000000	0.000000	100000.000000	0.000000
J-1839	26.060000	0.000000	0.000000	100000.000000	0.000000
J-1840	25.930000	0.000000	0.000000	100000.000000	0.000000
J-1841	26.350000	0.000000	0.000000	100000.000000	0.000000
J-1842	27.880000	0.000000	0.000000	100000.000000	0.000000
J-1843	27.800000	0.000000	0.000000	100000.000000	0.000000
J-1844	25.060000	0.000000	0.000000	100000.000000	0.000000
J-1845	26.040000	0.000000	0.000000	100000.000000	0.000000
J-1846	25.070000	0.000000	0.000000	100000.000000	0.000000
J-1847	25.150000	0.000000	0.000000	100000.000000	0.000000
J-1848	30.140000	0.000000	0.000000	100000.000000	0.000000
J-1849	30.090000	0.000000	0.000000	100000.000000	0.000000
J-1850	29.980000	0.000000	0.000000	100000.000000	0.000000
J-1851	29.110000	0.000000	0.000000	100000.000000	0.000000
J-1852	29.370000	0.000000	0.000000	100000.000000	0.000000
J-1853	30.530000	0.000000	0.000000	100000.000000	0.000000
J-1854	25.700000	0.000000	0.000000	100000.000000	0.000000
J-1855	23.520000	0.000000	0.000000	100000.000000	0.000000
J-1856	23.540000	0.000000	0.000000	100000.000000	0.000000
J-1857	23.640000	0.000000	0.000000	100000.000000	0.000000
J-1858	25.390000	0.000000	0.000000	100000.000000	0.000000
J-1859	22.640000	0.000000	0.000000	100000.000000	0.000000
J-1860	25.210000	0.000000	0.000000	100000.000000	0.000000
J-1861	27.720000	0.000000	0.000000	100000.000000	0.000000
J-1862	27.810000	0.000000	0.000000	100000.000000	0.000000
J-1863	27.340000	0.000000	0.000000	100000.000000	0.000000
J-1864	27.560000	0.000000	0.000000	100000.000000	0.000000
J-1865	26.020000	0.000000	0.000000	100000.000000	0.000000
J-1866	25.620000	0.000000	0.000000	100000.000000	0.000000
J-1867	20.780000	0.000000	0.000000	100000.000000	0.000000
J-1868	22.490000	0.000000	0.000000	100000.000000	0.000000
J-1869	22.970000	0.000000	0.000000	100000.000000	0.000000
J-1870	27.450000	0.000000	0.000000	100000.000000	0.000000
J-1871	28.250000	0.000000	0.000000	100000.000000	0.000000
J-1872	30.760000	0.000000	0.000000	100000.000000	0.000000
J-1873	31.890000	0.000000	0.000000	100000.000000	0.000000
J-1874	32.140000	0.000000	0.000000	100000.000000	0.000000
J-1875	25.790000	0.000000	0.000000	100000.000000	0.000000
J-1876	27.620000	0.000000	0.000000	100000.000000	0.000000
J-1878	28.920000	0.000000	0.000000	100000.000000	0.000000
J-1879	28.480000	0.000000	0.000000	100000.000000	0.000000
J-1881	25.560000	0.000000	0.000000	100000.000000	0.000000
J-1882	19.720000	0.000000	0.000000	100000.000000	0.000000
J-1883	20.110000	0.000000	0.000000	100000.000000	0.000000
J-1885	19.980000	0.000000	0.000000	100000.000000	0.000000
J-1886	19.790000	0.000000	0.000000	100000.000000	0.000000
J-1934	35.050000	0.000000	0.000000	100000.000000	0.000000
J-1935	20.860000	0.000000	0.000000	100000.000000	0.000000
J-2999	28.510000	0.000000	0.000000	100000.000000	0.000000
J-3000	28.360000	0.000000	0.000000	100000.000000	0.000000
J-3003	27.980000	0.000000	0.000000	100000.000000	0.000000
J-3004	27.680000	0.000000	0.000000	100000.000000	0.000000
J-4	28.670000	0.000000	0.000000	100000.000000	0.000000
J-6	28.690000	0.000000	0.000000	100000.000000	0.000000
J-771	30.730000	0.000000	0.000000	100000.000000	0.000000
J-772	31.930000	0.000000	0.000000	100000.000000	0.000000
J-774	31.860000	0.000000	0.000000	100000.000000	0.000000
J-779	31.980000	0.000000	0.000000	100000.000000	0.000000
J-781	32.110000	0.000000	0.000000	100000.000000	0.000000
J-782	32.740000	0.000000	0.000000	100000.000000	0.000000
J-783	32.150000	0.000000	0.000000	100000.000000	0.000000
J-784	32.570000	0.000000	0.000000	100000.000000	0.000000
J-786	32.270000	0.000000	0.000000	100000.000000	0.000000
J-787	35.380000	0.000000	0.000000	100000.000000	0.000000
J-788	32.530000	0.000000	0.000000	100000.000000	0.000000
J-789	33.970000	0.000000	0.000000	100000.000000	0.000000
J-790	32.380000	0.000000	0.000000	100000.000000	0.000000
J-791	32.870000	0.000000	0.000000	100000.000000	0.000000
J-792	34.450000	0.000000	0.000000	100000.000000	0.000000
J-793	34.920000	0.000000	0.000000	100000.000000	0.000000
J-794	34.950000	0.000000	0.000000	100000.000000	0.000000
J-795	33.280000	0.000000	0.000000	100000.000000	0.000000
J-796	33.020000	0.000000	0.000000	100000.000000	0.000000
J-797	31.680000	0.000000	0.000000	100000.000000	0.000000
J-799	31.420000	0.000000	0.000000	100000.000000	0.000000
J-8	26.001677	0.000000	0.000000	100000.000000	0.000000
J-800	33.640000	0.000000	0.000000	100000.000000	0.000000
J-801	32.130000	0.000000	0.000000	100000.000000	0.000000
J-802	32.080000	0.000000	0.000000	100000.000000	0.000000