[TITLE]
;;Project Title/Notes

[OPTIONS]
;;Option             Value
FLOW_UNITS           CFS
INFILTRATION         HORTON
FLOW_ROUTING         DYNWAVE
LINK_OFFSETS         DEPTH
MIN_SLOPE            0
ALLOW_PONDING        YES
SKIP_STEADY_STATE    NO

START_DATE           01/01/2002
START_TIME           00:00:00
REPORT_START_DATE    01/01/2002
REPORT_START_TIME    00:00:00
END_DATE             01/01/2002
END_TIME             04:00:00
SWEEP_START          01/01
SWEEP_END            12/31
DRY_DAYS             0
REPORT_STEP          00:05:00
WET_STEP             01:00:00
DRY_STEP             24:00:00
ROUTING_STEP         0:00:30 

INERTIAL_DAMPING     NONE
NORMAL_FLOW_LIMITED  SLOPE
FORCE_MAIN_EQUATION  H-W
VARIABLE_STEP        0.00
LENGTHENING_STEP     10
MIN_SURFAREA         0.75
MAX_TRIALS           8
HEAD_TOLERANCE       0.001
SYS_FLOW_TOL         5
LAT_FLOW_TOL         5
MINIMUM_STEP         0.5
THREADS              1

[EVAPORATION]
;;Data Source    Parameters
;;-------------- ----------------
CONSTANT         0.0
DRY_ONLY         NO

[JUNCTIONS]
;;Name           Elevation  MaxDepth   InitDepth  SurDepth   Aponded   
;;-------------- ---------- ---------- ---------- ---------- ----------
0                19.660000  10.000000  0.000000   0.000000   0.000000  
1                19.580000  10.000000  0.000000   0.000000   0.000000  
10               16.520000  10.000000  0.000000   0.000000   0.000000  
100              -3.700000  12.200000  0.000000   0.000000   0.000000  
101              -3.160000  10.660000  0.000000   0.000000   0.000000  
102              -4.060000  10.000000  0.000000   0.000000   0.000000  
103              -4.000000  10.000000  0.000000   0.000000   0.000000  
104              -4.080000  10.000000  0.000000   0.000000   0.000000  
105              -4.300000  10.000000  0.000000   0.000000   0.000000  
106              -4.470000  10.000000  0.000000   0.000000   0.000000  
107              -5.210000  10.000000  0.000000   0.000000   0.000000  
108              -5.370000  10.000000  0.000000   0.000000   0.000000  
109              -5.480000  10.000000  0.000000   0.000000   0.000000  
11               16.040000  10.000000  0.000000   0.000000   0.000000  
110              -5.590000  10.000000  0.000000   0.000000   0.000000  
111              -5.700000  10.000000  0.000000   0.000000   0.000000  
112              -15.000000 2.000000   0.000000   0.000000   0.000000  
113              -15.000000 2.000000   0.000000   0.000000   0.000000  
114              -15.000000 2.000000   0.000000   0.000000   0.000000  
115              -15.000000 2.000000   0.000000   0.000000   0.000000  
116              -15.000000 2.000000   0.000000   0.000000   0.000000  
117              -15.000000 2.000000   0.000000   0.000000   0.000000  
118              -3.730000  10.000000  0.000000   0.000000   0.000000  
119              -3.750000  10.000000  0.000000   0.000000   0.000000  
12               15.750000  10.000000  0.000000   0.000000   0.000000  
120              -3.790000  10.000000  0.000000   0.000000   0.000000  
121              -5.820000  10.000000  0.000000   0.000000   0.000000  
123              -6.410000  10.000000  0.000000   0.000000   0.000000  
124              -6.180000  10.000000  0.000000   0.000000   0.000000  
125              -5.960000  10.000000  0.000000   0.000000   0.000000  
13               15.470000  10.000000  0.000000   0.000000   0.000000  
14               15.420000  10.000000  0.000000   0.000000   0.000000  
15               15.380000  10.000000  0.000000   0.000000   0.000000  
16               14.920000  10.000000  0.000000   0.000000   0.000000  
17               14.740000  10.000000  0.000000   0.000000   0.000000  
18               14.550000  10.000000  0.000000   0.000000   0.000000  
19               14.370000  10.000000  0.000000   0.000000   0.000000  
2                19.380000  10.000000  0.000000   0.000000   0.000000  
20               14.270000  10.000000  0.000000   0.000000   0.000000  
21               13.950000  10.000000  0.000000   0.000000   0.000000  
22               13.420000  10.000000  0.000000   0.000000   0.000000  
23               4.790000   19.420000  0.000000   0.000000   0.000000  
24               17.990000  10.000000  0.000000   0.000000   0.000000  
25               17.760000  10.000000  0.000000   0.000000   0.000000  
26               17.320000  10.000000  0.000000   0.000000   0.000000  
27               17.040000  10.000000  0.000000   0.000000   0.000000  
28               16.720000  10.000000  0.000000   0.000000   0.000000  
29               15.960000  10.000000  0.000000   0.000000   0.000000  
3                19.220000  10.000000  0.000000   0.000000   0.000000  
30               15.720000  10.000000  0.000000   0.000000   0.000000  
31               15.490000  10.000000  0.000000   0.000000   0.000000  
32               15.420000  10.000000  0.000000   0.000000   0.000000  
33               15.000000  10.000000  0.000000   0.000000   0.000000  
34               14.940000  10.000000  0.000000   0.000000   0.000000  
35               14.800000  10.000000  0.000000   0.000000   0.000000  
36               14.600000  10.000000  0.000000   0.000000   0.000000  
37               14.120000  10.000000  0.000000   0.000000   0.000000  
38               13.990000  10.000000  0.000000   0.000000   0.000000  
39               13.640000  10.000000  0.000000   0.000000   0.000000  
4                19.080000  10.000000  0.000000   0.000000   0.000000  
40               13.570000  10.000000  0.000000   0.000000   0.000000  
41               13.200000  10.000000  0.000000   0.000000   0.000000  
42               13.080000  10.000000  0.000000   0.000000   0.000000  
43               12.890000  10.000000  0.000000   0.000000   0.000000  
44               12.610000  10.000000  0.000000   0.000000   0.000000  
45               4.570000   18.430000  0.000000   0.000000   0.000000  
46               4.420000   17.910000  0.000000   0.000000   0.000000  
47               4.280000   18.380000  0.000000   0.000000   0.000000  
48               4.160000   19.140000  0.000000   0.000000   0.000000  
49               4.030000   19.600000  0.000000   0.000000   0.000000  
5                19.040000  10.000000  0.000000   0.000000   0.000000  
50               3.710000   10.000000  0.000000   0.000000   0.000000  
51               3.650000   20.350000  0.000000   0.000000   0.000000  
52               3.260000   20.210000  0.000000   0.000000   0.000000  
53               3.080000   20.450000  0.000000   0.000000   0.000000  
54               2.960000   18.940000  0.000000   0.000000   0.000000  
55               2.800000   20.450000  0.000000   0.000000   0.000000  
56               2.740000   17.230000  0.000000   0.000000   0.000000  
57               2.510000   15.540000  0.000000   0.000000   0.000000  
58               2.170000   14.980000  0.000000   0.000000   0.000000  
59               1.830000   14.450000  0.000000   0.000000   0.000000  
6                19.000000  10.000000  0.000000   0.000000   0.000000  
60               1.580000   13.920000  0.000000   0.000000   0.000000  
61               1.330000   12.700000  0.000000   0.000000   0.000000  
62               0.970000   10.940000  0.000000   0.000000   0.000000  
63               0.200000   10.500000  0.000000   0.000000   0.000000  
64               0.140000   8.880000   0.000000   0.000000   0.000000  
65               0.020000   8.570000   0.000000   0.000000   0.000000  
66               -0.160000  8.410000   0.000000   0.000000   0.000000  
67               -0.400000  8.530000   0.000000   0.000000   0.000000  
68               -0.490000  9.350000   0.000000   0.000000   0.000000  
69               -0.620000  8.980000   0.000000   0.000000   0.000000  
7                18.640000  10.000000  0.000000   0.000000   0.000000  
70               -0.700000  7.250000   0.000000   0.000000   0.000000  
71               -0.850000  8.050000   0.000000   0.000000   0.000000  
72               -0.940000  8.040000   0.000000   0.000000   0.000000  
73               -1.060000  7.960000   0.000000   0.000000   0.000000  
74               -1.150000  7.350000   0.000000   0.000000   0.000000  
75               -1.340000  7.240000   0.000000   0.000000   0.000000  
76               -1.490000  7.590000   0.000000   0.000000   0.000000  
77               -1.660000  9.760000   0.000000   0.000000   0.000000  
78               -1.820000  9.720000   0.000000   0.000000   0.000000  
79               -2.000000  7.320000   0.000000   0.000000   0.000000  
8                18.100000  10.000000  0.000000   0.000000   0.000000  
80               -2.130000  10.000000  0.000000   0.000000   0.000000  
81               -1.300000  10.000000  0.000000   0.000000   0.000000  
82               -0.220000  10.000000  0.000000   0.000000   0.000000  
83               -0.340000  10.000000  0.000000   0.000000   0.000000  
84               -0.350000  10.000000  0.000000   0.000000   0.000000  
85               -0.310000  10.000000  0.000000   0.000000   0.000000  
86               -0.540000  10.000000  0.000000   0.000000   0.000000  
87               -0.590000  10.000000  0.000000   0.000000   0.000000  
88               -0.670000  10.000000  0.000000   0.000000   0.000000  
89               -1.010000  10.000000  0.000000   0.000000   0.000000  
9                18.000000  10.000000  0.000000   0.000000   0.000000  
90               1.210000   4.140000   0.000000   0.000000   0.000000  
91               0.760000   4.560000   0.000000   0.000000   0.000000  
92               0.610000   4.740000   0.000000   0.000000   0.000000  
93               1.450000   4.600000   0.000000   0.000000   0.000000  
94               2.330000   4.920000   0.000000   0.000000   0.000000  
95               2.980000   7.220000   0.000000   0.000000   0.000000  
96               3.780000   10.000000  0.000000   0.000000   0.000000  
97               4.400000   10.000000  0.000000   0.000000   0.000000  
98               -3.160000  10.660000  0.000000   0.000000   0.000000  
99               -3.680000  12.180000  0.000000   0.000000   0.000000  

[OUTFALLS]
;;Name           Elevation  Type       Stage Data       Gated    Route To        
;;-------------- ---------- ---------- ---------------- -------- ----------------
122              -6.540000  FREE                        NO                       

[CONDUITS]
;;Name           From Node        To Node          Length     Roughness  InOffset   OutOffset  InitFlow   MaxFlow   
;;-------------- ---------------- ---------------- ---------- ---------- ---------- ---------- ---------- ----------
0                0                1                55.000000  0.013000   0.000000   0.000000   0.000000   0.000000  
1                1                2                155.000000 0.013000   0.000000   0.000000   0.000000   0.000000  
10               10               11               267.000000 0.013000   0.000000   0.000000   0.000000   0.000000  
100              102              104              285.000000 0.013000   0.000000   0.000000   0.000000   0.000000  
101              104              105              342.000000 0.013000   0.000000   0.000000   0.000000   0.000000  
102              105              106              264.000000 0.013000   0.000000   0.000000   0.000000   0.000000  
103              106              107              432.000000 0.013000   0.000000   0.000000   0.000000   0.000000  
104              107              108              343.000000 0.013000   0.000000   0.000000   0.000000   0.000000  
105              108              109              245.000000 0.013000   0.000000   0.000000   0.000000   0.000000  
106              109              110              255.000000 0.013000   0.000000   0.000000   0.000000   0.000000  
107              113              99               58.000000  0.013000   0.000000   0.000000   0.000000   0.000000  
108              112              113              64.000000  0.013000   0.000000   0.000000   0.000000   0.000000  
109              101              112              60.000000  0.013000   0.000000   0.000000   0.000000   0.000000  
11               11               12               259.000000 0.013000   0.000000   0.000000   0.000000   0.000000  
110              114              99               58.000000  0.013000   0.000000   0.000000   0.000000   0.000000  
111              115              99               58.000000  0.013000   0.000000   0.000000   0.000000   0.000000  
112              116              114              64.000000  0.013000   0.000000   0.000000   0.000000   0.000000  
113              117              115              64.000000  0.013000   0.000000   0.000000   0.000000   0.000000  
114              101              116              60.000000  0.013000   0.000000   0.000000   0.000000   0.000000  
115              101              117              60.000000  0.013000   0.000000   0.000000   0.000000   0.000000  
116              98               101              22.000000  0.013000   0.250000   0.000000   0.000000   0.000000  
117              120              103              130.000000 0.013000   0.000000   0.000000   0.000000   0.000000  
118              119              120              41.000000  0.013000   0.000000   0.000000   0.000000   0.000000  
119              118              119              100.000000 0.013000   0.000000   0.000000   0.000000   0.000000  
12               12               13               261.000000 0.013000   0.000000   0.000000   0.000000   0.000000  
120              100              118              16.000000  0.013000   0.000000   0.000000   0.000000   0.000000  
121              110              111              250.000000 0.013000   0.000000   0.000000   0.000000   0.000000  
122              111              121              250.000000 0.013000   0.000000   0.000000   0.000000   0.000000  
123              125              124              500.000000 0.013000   0.000000   0.000000   0.000000   0.000000  
124              121              125              300.000000 0.013000   0.000000   0.000000   0.000000   0.000000  
125              124              123              520.000000 0.013000   0.000000   0.000000   0.000000   0.000000  
126              123              122              270.000000 0.013000   0.000000   0.000000   0.000000   0.000000  
127              81               98               30.000000  0.013000   0.000000   0.250000   0.000000   0.000000  
13               13               14               104.000000 0.013000   0.000000   0.000000   0.000000   0.000000  
14               14               15               104.000000 0.013000   0.000000   0.000000   0.000000   0.000000  
15               15               16               201.000000 0.013000   0.000000   0.000000   0.000000   0.000000  
16               16               17               227.000000 0.013000   0.000000   0.000000   0.000000   0.000000  
17               17               18               239.000000 0.013000   0.000000   0.000000   0.000000   0.000000  
18               18               19               218.000000 0.013000   0.000000   0.000000   0.000000   0.000000  
19               19               20               22.000000  0.013000   0.000000   0.000000   0.000000   0.000000  
2                2                3                113.000000 0.013000   0.000000   0.000000   0.000000   0.000000  
20               20               21               285.000000 0.013000   0.000000   0.000000   0.000000   0.000000  
21               21               22               246.000000 0.013000   0.000000   0.000000   0.000000   0.000000  
22               22               23               20.000000  0.013000   0.000000   0.000000   0.000000   0.000000  
23               24               25               103.000000 0.013000   0.000000   0.000000   0.000000   0.000000  
24               25               26               176.000000 0.013000   0.000000   0.000000   0.000000   0.000000  
25               26               27               180.000000 0.013000   0.000000   0.000000   0.000000   0.000000  
26               27               28               180.000000 0.013000   0.000000   0.000000   0.000000   0.000000  
27               28               29               186.000000 0.013000   0.000000   0.000000   0.000000   0.000000  
28               29               30               200.000000 0.013000   0.000000   0.000000   0.000000   0.000000  
29               30               31               118.000000 0.013000   0.000000   0.000000   0.000000   0.000000  
3                3                4                103.000000 0.013000   0.000000   0.000000   0.000000   0.000000  
30               31               32               43.000000  0.013000   0.000000   0.000000   0.000000   0.000000  
31               32               33               242.000000 0.013000   0.000000   0.000000   0.000000   0.000000  
32               33               34               223.000000 0.013000   0.000000   0.000000   0.000000   0.000000  
33               34               35               232.000000 0.013000   0.000000   0.000000   0.000000   0.000000  
34               35               36               200.000000 0.013000   0.000000   0.000000   0.000000   0.000000  
35               36               37               217.000000 0.013000   0.000000   0.000000   0.000000   0.000000  
36               37               38               196.000000 0.013000   0.000000   0.000000   0.000000   0.000000  
37               38               39               213.000000 0.013000   0.000000   0.000000   0.000000   0.000000  
38               39               40               42.000000  0.013000   0.000000   0.000000   0.000000   0.000000  
39               40               41               221.000000 0.013000   0.000000   0.000000   0.000000   0.000000  
4                4                5                96.000000  0.013000   0.000000   0.000000   0.000000   0.000000  
40               41               42               216.000000 0.013000   0.000000   0.000000   0.000000   0.000000  
41               42               43               160.000000 0.013000   0.000000   0.000000   0.000000   0.000000  
42               43               44               185.000000 0.013000   0.000000   0.000000   0.000000   0.000000  
43               44               23               27.000000  0.013000   0.000000   0.000000   0.000000   0.000000  
44               23               45               247.000000 0.013000   0.000000   0.000000   0.000000   0.000000  
45               45               46               164.000000 0.013000   0.000000   0.000000   0.000000   0.000000  
46               46               47               162.000000 0.013000   0.000000   0.000000   0.000000   0.000000  
47               47               48               128.000000 0.013000   0.000000   0.000000   0.000000   0.000000  
48               48               49               149.000000 0.013000   0.000000   0.000000   0.000000   0.000000  
49               49               50               345.000000 0.013000   0.000000   0.000000   0.000000   0.000000  
5                5                6                170.000000 0.013000   0.000000   0.000000   0.000000   0.000000  
50               50               51               75.000000  0.013000   0.000000   0.000000   0.000000   0.000000  
51               51               52               435.000000 0.013000   0.000000   0.000000   0.000000   0.000000  
52               52               53               201.000000 0.013000   0.000000   0.000000   0.000000   0.000000  
53               53               54               111.000000 0.013000   0.000000   0.000000   0.000000   0.000000  
54               54               55               160.000000 0.013000   0.000000   0.000000   0.000000   0.000000  
55               55               56               69.000000  0.013000   0.000000   0.000000   0.000000   0.000000  
56               56               57               227.000000 0.013000   0.000000   0.000000   0.000000   0.000000  
57               57               58               339.000000 0.013000   0.000000   0.000000   0.000000   0.000000  
58               58               59               338.000000 0.013000   0.000000   0.000000   0.000000   0.000000  
59               59               60               250.000000 0.013000   0.000000   0.000000   0.000000   0.000000  
6                6                7                76.000000  0.013000   0.000000   0.000000   0.000000   0.000000  
60               60               61               248.000000 0.013000   0.000000   0.000000   0.000000   0.000000  
61               61               62               364.000000 0.013000   0.000000   0.000000   0.000000   0.000000  
62               62               63               325.000000 0.013000   0.000000   0.000000   0.000000   0.000000  
63               63               64               120.000000 0.013000   0.000000   0.000000   0.000000   0.000000  
64               64               65               239.000000 0.013000   0.000000   0.000000   0.000000   0.000000  
65               65               66               361.000000 0.013000   0.000000   0.000000   0.000000   0.000000  
66               66               67               497.000000 0.013000   0.000000   0.000000   0.000000   0.000000  
67               67               68               172.000000 0.013000   0.000000   0.000000   0.000000   0.000000  
68               68               69               245.000000 0.013000   0.000000   0.000000   0.000000   0.000000  
69               69               70               180.000000 0.013000   0.000000   0.000000   0.000000   0.000000  
7                7                8                273.000000 0.013000   0.000000   0.000000   0.000000   0.000000  
70               70               71               289.000000 0.013000   0.000000   0.000000   0.000000   0.000000  
71               71               72               178.000000 0.013000   0.000000   0.000000   0.000000   0.000000  
72               72               73               245.000000 0.013000   0.000000   0.000000   0.000000   0.000000  
73               73               74               175.000000 0.013000   0.000000   0.000000   0.000000   0.000000  
74               74               75               335.000000 0.013000   0.000000   0.000000   0.000000   0.000000  
75               75               76               268.000000 0.013000   0.000000   0.000000   0.000000   0.000000  
76               76               77               304.000000 0.013000   0.000000   0.000000   0.000000   0.000000  
77               77               78               298.000000 0.013000   0.000000   0.000000   0.000000   0.000000  
78               78               79               355.000000 0.013000   0.000000   0.000000   0.000000   0.000000  
79               79               80               200.000000 0.013000   0.000000   0.000000   0.000000   0.000000  
8                8                9                83.000000  0.013000   0.000000   0.000000   0.000000   0.000000  
80               80               98               485.000000 0.013000   0.000000   0.000000   0.000000   0.000000  
81               82               83               75.000000  0.013000   0.000000   0.000000   0.000000   0.000000  
82               83               84               10.000000  0.013000   0.000000   0.000000   0.000000   0.000000  
83               84               86               228.000000 0.013000   0.000000   0.000000   0.000000   0.000000  
84               86               87               205.000000 0.013000   0.000000   0.000000   0.000000   0.000000  
85               87               88               64.000000  0.013000   0.000000   0.000000   0.000000   0.000000  
86               88               89               240.000000 0.013000   0.000000   0.000000   0.000000   0.000000  
87               89               81               213.000000 0.013000   0.000000   0.000000   0.000000   0.000000  
88               85               83               30.000000  0.013000   0.000000   0.000000   0.000000   0.000000  
89               97               96               175.000000 0.013000   0.000000   0.000000   0.000000   0.000000  
9                9                10               60.000000  0.013000   0.000000   0.000000   0.000000   0.000000  
90               96               95               223.000000 0.013000   0.000000   0.000000   0.000000   0.000000  
91               95               94               184.000000 0.013000   0.000000   0.000000   0.000000   0.000000  
92               94               93               250.000000 0.013000   0.000000   0.000000   0.000000   0.000000  
93               93               92               240.000000 0.013000   0.000000   0.000000   0.000000   0.000000  
94               92               79               30.000000  0.013000   0.000000   2.540000   0.000000   0.000000  
95               90               91               190.000000 0.013000   0.000000   0.000000   0.000000   0.000000  
96               91               79               10.000000  0.013000   0.000000   2.540000   0.000000   0.000000  
98               99               100              11.000000  0.013000   0.000000   0.000000   0.000000   0.000000  
99               103              102              50.000000  0.013000   0.000000   0.000000   0.000000   0.000000  

[XSECTIONS]
;;Link           Shape        Geom1            Geom2      Geom3      Geom4      Barrels    Culvert   
;;-------------- ------------ ---------------- ---------- ---------- ---------- ---------- ----------
0                CIRCULAR     1.166667         0.000000   0.000000   0.000000   1          0         
1                CIRCULAR     1.166667         0.000000   0.000000   0.000000   1          0         
10               CIRCULAR     1.500000         0.000000   0.000000   0.000000   1          0         
100              CIRCULAR     4.000000         0.000000   0.000000   0.000000   1          0         
101              CIRCULAR     4.000000         0.000000   0.000000   0.000000   1          0         
102              CIRCULAR     4.000000         0.000000   0.000000   0.000000   1          0         
103              CIRCULAR     4.000000         0.000000   0.000000   0.000000   1          0         
104              CIRCULAR     4.500000         0.000000   0.000000   0.000000   1          0         
105              CIRCULAR     4.500000         0.000000   0.000000   0.000000   1          0         
106              CIRCULAR     4.500000         0.000000   0.000000   0.000000   1          0         
107              CIRCULAR     2.000000         0.000000   0.000000   0.000000   1          0         
108              CIRCULAR     2.000000         0.000000   0.000000   0.000000   1          0         
109              CIRCULAR     2.000000         0.000000   0.000000   0.000000   1          0         
11               CIRCULAR     1.500000         0.000000   0.000000   0.000000   1          0         
110              CIRCULAR     2.000000         0.000000   0.000000   0.000000   1          0         
111              CIRCULAR     2.000000         0.000000   0.000000   0.000000   1          0         
112              CIRCULAR     2.000000         0.000000   0.000000   0.000000   1          0         
113              CIRCULAR     2.000000         0.000000   0.000000   0.000000   1          0         
114              CIRCULAR     2.000000         0.000000   0.000000   0.000000   1          0         
115              CIRCULAR     2.000000         0.000000   0.000000   0.000000   1          0         
116              CIRCULAR     4.000000         0.000000   0.000000   0.000000   1          0         
117              CIRCULAR     4.000000         0.000000   0.000000   0.000000   1          0         
118              CIRCULAR     4.000000         0.000000   0.000000   0.000000   1          0         
119              CIRCULAR     4.000000         0.000000   0.000000   0.000000   1          0         
12               CIRCULAR     1.500000         0.000000   0.000000   0.000000   1          0         
120              CIRCULAR     4.000000         0.000000   0.000000   0.000000   1          0         
121              CIRCULAR     4.500000         0.000000   0.000000   0.000000   1          0         
122              CIRCULAR     4.500000         0.000000   0.000000   0.000000   1          0         
123              CIRCULAR     4.500000         0.000000   0.000000   0.000000   1          0         
124              CIRCULAR     4.500000         0.000000   0.000000   0.000000   1          0         
125              CIRCULAR     4.500000         0.000000   0.000000   0.000000   1          0         
126              CIRCULAR     4.500000         0.000000   0.000000   0.000000   1          0         
127              CIRCULAR     2.500000         0.000000   0.000000   0.000000   1          0         
13               CIRCULAR     1.500000         0.000000   0.000000   0.000000   1          0         
14               CIRCULAR     1.500000         0.000000   0.000000   0.000000   1          0         
15               CIRCULAR     1.500000         0.000000   0.000000   0.000000   1          0         
16               CIRCULAR     1.500000         0.000000   0.000000   0.000000   1          0         
17               CIRCULAR     1.500000         0.000000   0.000000   0.000000   1          0         
18               CIRCULAR     1.500000         0.000000   0.000000   0.000000   1          0         
19               CIRCULAR     1.500000         0.000000   0.000000   0.000000   1          0         
2                CIRCULAR     1.166667         0.000000   0.000000   0.000000   1          0         