[TITLE]
;;Project Title/Notes

[OPTIONS]
;;Option             Value
FLOW_UNITS           GPM
INFILTRATION         HORTON
FLOW_ROUTING         DYNWAVE
LINK_OFFSETS         DEPTH
MIN_SLOPE            0
ALLOW_PONDING        YES
SKIP_STEADY_STATE    NO

START_DATE           01/07/2016
START_TIME           00:00:00
REPORT_START_DATE    01/07/2016
REPORT_START_TIME    00:00:00
END_DATE             01/11/2016
END_TIME             23:00:00
SWEEP_START          01/01
SWEEP_END            01/01
DRY_DAYS             5.000000
REPORT_STEP          01:00:00
WET_STEP             00:30:00
DRY_STEP             01:00:00
ROUTING_STEP         0:00:30 

INERTIAL_DAMPING     FULL
NORMAL_FLOW_LIMITED  BOTH
FORCE_MAIN_EQUATION  H-W
VARIABLE_STEP        0.75
LENGTHENING_STEP     10
MIN_SURFAREA         12.557
MAX_TRIALS           8
HEAD_TOLERANCE       0.001000
SYS_FLOW_TOL         5
LAT_FLOW_TOL         5
MINIMUM_STEP         0
THREADS              1

[EVAPORATION]
;;Data Source    Parameters
;;-------------- ----------------
CONSTANT         0.0
DRY_ONLY         NO

[RAINGAGES]
;;Name           Format    Interval SCF      Source    
;;-------------- --------- ------ ------ ----------
RAINGAGE         VOLUME    1.000000 1.000000 TIMESERIES CALIBRATION_RAINFALL\

[JUNCTIONS]
;;Name           Elevation  MaxDepth   InitDepth  SurDepth   Aponded   
;;-------------- ---------- ---------- ---------- ---------- ----------
10A-1            135.649994 8.880005   0.000000   0.000000   0.000000  
; Missing  Rim Elevation
10A-1-0          124.000000 10.000000  0.000000   0.000000   0.000000  
10A-2            140.949997 7.050003   0.000000   0.000000   0.000000  
10A-2-1          144.440002 5.279999   0.000000   0.000000   0.000000  
10A-2-2          151.179993 4.970001   0.000000   0.000000   0.000000  
10A-2-3          151.889999 9.630005   0.000000   0.000000   0.000000  
10A-2-4          152.169998 8.809998   0.000000   0.000000   0.000000  
10A-2-5          157.500000 7.979996   0.000000   0.000000   0.000000  
10A-2-5-1        161.619995 7.160004   0.000000   0.000000   0.000000  
10A-2-5-2        164.550003 5.869995   0.000000   0.000000   0.000000  
11A-0-1          51.439999  16.200001  0.000000   0.000000   0.000000  
11A-0-2          52.900002  14.299995  0.000000   0.000000   0.000000  
11A-1            58.630001  10.369999  0.000000   0.000000   0.000000  
11A-10           65.320000  3.680000   0.000000   0.000000   0.000000  
11A-11           66.199997  7.800003   0.000000   0.000000   0.000000  
11A-11-0         70.480003  6.469994   0.000000   0.000000   0.000000  
; Missing  Rim Elevation
11A-11-1         117.560027 9.999973   0.000000   0.000000   0.000000  
11A-11-2         152.500000 6.500000   0.000000   0.000000   0.000000  
11A-11-3         153.029999 7.970001   0.000000   0.000000   0.000000  
11A-11-4         175.600006 7.399994   0.000000   0.000000   0.000000  
11A-11-5         185.100006 6.899994   0.000000   0.000000   0.000000  
11A-11-6         188.300003 6.000000   0.000000   0.000000   0.000000  
11A-12           67.470001  6.830002   0.000000   0.000000   0.000000  
11A-13           68.489998  14.209999  0.000000   0.000000   0.000000  
11A-14           68.699997  5.100006   0.000000   0.000000   0.000000  
11A-15           69.040001  6.360001   0.000000   0.000000   0.000000  
11A-16           69.400002  4.000000   0.000000   0.000000   0.000000  
11A-17           70.099998  12.400002  0.000000   0.000000   0.000000  
11A-18           70.709999  4.290001   0.000000   0.000000   0.000000  
11A-19           71.029999  3.970001   0.000000   0.000000   0.000000  
11A-2            59.360001  14.639999  0.000000   0.000000   0.000000  
11A-20           71.480003  4.019997   0.000000   0.000000   0.000000  
11A-21           71.959999  4.040001   0.000000   0.000000   0.000000  
11A-22           72.809998  4.190002   0.000000   0.000000   0.000000  
11A-22-1         72.900000  9.100000   0.000000   0.000000   0.000000  
11A-23           73.370003  5.129997   0.000000   0.000000   0.000000  
11A-23-1         75.370003  18.029999  0.000000   0.000000   0.000000  
11A-24           76.470001  5.029999   0.000000   0.000000   0.000000  
11A-25           77.000000  6.000000   0.000000   0.000000   0.000000  
11A-25-0         77.190002  5.970001   0.000000   0.000000   0.000000  
11A-26           77.790001  5.709999   0.000000   0.000000   0.000000  
11A-27           78.129997  6.870003   0.000000   0.000000   0.000000  
11A-28           78.250000  11.540001  0.000000   0.000000   0.000000  
11A-29           79.029999  15.470001  0.000000   0.000000   0.000000  
11A-3            59.980000  11.020000  0.000000   0.000000   0.000000  
11A-30           79.809998  5.690002   0.000000   0.000000   0.000000  
11A-31           80.349998  7.050003   0.000000   0.000000   0.000000  
11A-32           80.489998  5.010002   0.000000   0.000000   0.000000  
11A-33           83.320000  4.680000   0.000000   0.000000   0.000000  
11A-34           88.250000  4.250000   0.000000   0.000000   0.000000  
11A-35           88.360001  4.639999   0.000000   0.000000   0.000000  
11A-36           89.940002  9.559998   0.000000   0.000000   0.000000  
11A-37           90.870003  5.629997   0.000000   0.000000   0.000000  
11A-38           91.849998  3.950005   0.000000   0.000000   0.000000  
11A-4            60.779999  12.220001  0.000000   0.000000   0.000000  
11A-5            61.470001  12.529999  0.000000   0.000000   0.000000  
11A-6            62.270000  11.230000  0.000000   0.000000   0.000000  
11A-7            63.209999  11.040001  0.000000   0.000000   0.000000  
11A-8            64.150002  9.349998   0.000000   0.000000   0.000000  
11A-9            64.559998  7.440002   0.000000   0.000000   0.000000  
11A-9-0          65.090000  3.910000   0.000000   0.000000   0.000000  
11A-9-0-0        65.490000  3.260000   0.000000   0.000000   0.000000  
1A-1             34.099998  5.400002   0.000000   0.000000   0.000000  
1A-10            38.200001  14.000000  0.000000   0.000000   0.000000  
1A-11            38.500000  14.099998  0.000000   0.000000   0.000000  
1A-12            38.799999  14.299999  0.000000   0.000000   0.000000  
1A-13            39.299999  15.700001  0.000000   0.000000   0.000000  
1A-14            39.700001  6.599998   0.000000   0.000000   0.000000  
1A-15            40.000000  9.400002   0.000000   0.000000   0.000000  
1A-16            40.500000  8.099998   0.000000   0.000000   0.000000  
1A-17            40.900002  3.899998   0.000000   0.000000   0.000000  
1A-18            41.299999  7.299999   0.000000   0.000000   0.000000  
1A-19            41.599998  9.740002   0.000000   0.000000   0.000000  
1A-2             34.500000  6.000000   0.000000   0.000000   0.000000  
1A-2-0           33.200001  4.899998   0.000000   0.000000   0.000000  
1A-20            42.099998  18.000000  0.000000   0.000000   0.000000  
1A-21            47.799999  16.899998  0.000000   0.000000   0.000000  
1A-22            51.000000  14.900002  0.000000   0.000000   0.000000  
1A-22-2          116.500000 5.699997   0.000000   0.000000   0.000000  
; Missing  Rim Elevation
1A-22-3          124.693126 9.999874   0.000000   0.000000   0.000000  
1A-23            51.700001  11.500000  0.000000   0.000000   0.000000  
1A-24            52.500000  6.099998   0.000000   0.000000   0.000000  
1A-25            52.799999  3.700001   0.000000   0.000000   0.000000  
1A-26            53.299999  4.400002   0.000000   0.000000   0.000000  
1A-27            61.299999  4.200001   0.000000   0.000000   0.000000  
1A-28            81.900002  8.699997   0.000000   0.000000   0.000000  
; Missing  Rim Elevation
1A-29            86.803918  10.000082  0.000000   0.000000   0.000000  
1A-3             35.000000  8.700001   0.000000   0.000000   0.000000  
1A-30            89.400002  5.599998   0.000000   0.000000   0.000000  
1A-31            97.500000  8.000000   0.000000   0.000000   0.000000  
1A-36            166.699997 3.199997   0.000000   0.000000   0.000000  
1A-37            167.100006 6.500000   0.000000   0.000000   0.000000  
1A-37-1          184.699997 4.400009   0.000000   0.000000   0.000000  
; Missing  Rim Elevation
1A-37-1-0        200.114652 10.000348  0.000000   0.000000   0.000000  
1A-37-2          214.199997 4.100006   0.000000   0.000000   0.000000  
1A-38            216.500000 3.800003   0.000000   0.000000   0.000000  
1A-39            237.399994 3.700012   0.000000   0.000000   0.000000  
1A-39-0          240.100006 5.599991   0.000000   0.000000   0.000000  
1A-39-1          239.800003 4.699997   0.000000   0.000000   0.000000  
1A-39-10         359.779999 5.619995   0.000000   0.000000   0.000000  
1A-39-11         377.570007 9.429993   0.000000   0.000000   0.000000  
1A-39-2          240.949997 5.750000   0.000000   0.000000   0.000000  
1A-39-3          247.100006 6.899994   0.000000   0.000000   0.000000  
1A-39-5          299.000000 3.000000   0.000000   0.000000   0.000000  
1A-39-6          301.000000 5.000000   0.000000   0.000000   0.000000  
1A-39-7          319.230011 3.769989   0.000000   0.000000   0.000000  
1A-39-8          322.519989 4.480011   0.000000   0.000000   0.000000  
1A-39-9          335.429993 11.570007  0.000000   0.000000   0.000000  
1A-4             35.400002  8.399998   0.000000   0.000000   0.000000  
1A-40            264.140015 6.419983   0.000000   0.000000   0.000000  
1A-41            302.559998 5.040009   0.000000   0.000000   0.000000  
1A-42            316.679993 5.020020   0.000000   0.000000   0.000000  
1A-43            321.769989 4.930023   0.000000   0.000000   0.000000  
1A-44            331.950012 2.949982   0.000000   0.000000   0.000000  
; Missing  Rim Elevation
1A-44-0-1        342.111236 9.999764   0.000000   0.000000   0.000000  
; Missing  Rim Elevation
1A-44-0-2        357.255269 9.999731   0.000000   0.000000   0.000000  
1A-45            362.250000 5.579987   0.000000   0.000000   0.000000  
1A-46            371.950012 3.789978   0.000000   0.000000   0.000000  
1A-47            373.010010 6.169983   0.000000   0.000000   0.000000  
1A-47-1          403.920013 4.989990   0.000000   0.000000   0.000000  
1A-47-3          430.529999 8.299988   0.000000   0.000000   0.000000  
1A-48            405.070007 5.259979   0.000000   0.000000   0.000000  
1A-49            443.500000 5.399994   0.000000   0.000000   0.000000  
1A-5             36.099998  7.700001   0.000000   0.000000   0.000000  
1A-50            455.869995 7.429993   0.000000   0.000000   0.000000  
1A-51            501.649994 6.450012   0.000000   0.000000   0.000000  
; Missing  Rim Elevation
1A-51-1          538.198086 9.999914   0.000000   0.000000   0.000000  
; Missing  Rim Elevation
1A-51-2          586.367341 9.999659   0.000000   0.000000   0.000000  
1A-52            518.200012 8.399963   0.000000   0.000000   0.000000  
1A-53            524.479980 5.820007   0.000000   0.000000   0.000000  
1A-54            528.099976 7.000000   0.000000   0.000000   0.000000  
1A-55            538.309998 11.590027  0.000000   0.000000   0.000000  
1A-56            551.190002 6.609985   0.000000   0.000000   0.000000  
1A-6             36.500000  9.500000   0.000000   0.000000   0.000000  
1A-7             36.700001  9.700001   0.000000   0.000000   0.000000  
1A-8             37.000000  11.000000  0.000000   0.000000   0.000000  
1A-9             37.400002  10.399998  0.000000   0.000000   0.000000  
1B-10            142.899994 8.500000   0.000000   0.000000   0.000000  
1B-13            148.309998 6.139999   0.000000   0.000000   0.000000  
1B-17            176.770004 11.129990  0.000000   0.000000   0.000000  
1B-18            184.199997 6.699997   0.000000   0.000000   0.000000  
1B-19            212.000000 5.899994   0.000000   0.000000   0.000000  
1B-2             43.380001  8.980000   0.000000   0.000000   0.000000  
1B-20            224.619995 9.180008   0.000000   0.000000   0.000000  
1B-3             59.880001  9.600002   0.000000   0.000000   0.000000  
1B-4             87.430000  14.790001  0.000000   0.000000   0.000000  
1B-5             95.099998  12.000000  0.000000   0.000000   0.000000  
1B-6             96.440002  26.479996  0.000000   0.000000   0.000000  
1B-7-1           99.419998  23.800003  0.000000   0.000000   0.000000  
1B-7-13          148.199997 8.400009   0.000000   0.000000   0.000000  
1B-8             112.679510 16.360490  0.000000   0.000000   0.000000  
1B-8-0           119.184704 14.595296  0.000000   0.000000   0.000000  
; Missing  Rim Elevation
1B-8-0-0         130.633821 10.000179  0.000000   0.000000   0.000000  
1B-8-1           150.429993 6.170013   0.000000   0.000000   0.000000  
1B-8-1-1         158.970001 12.139999  0.000000   0.000000   0.000000  
1B-8-1-2         162.000000 7.000000   0.000000   0.000000   0.000000  
1B-8-2           157.100006 6.599991   0.000000   0.000000   0.000000  
1B-8-3           173.000000 4.300003   0.000000   0.000000   0.000000  
1B-8-4           173.899994 10.200012  0.000000   0.000000   0.000000  
1B-9             140.250000 6.149994   0.000000   0.000000   0.000000  
; Missing  Rim Elevation
1B-9-0           119.885944 10.000056  0.000000   0.000000   0.000000  
; Missing  Rim Elevation
1C-5-0           104.729617 10.000383  0.000000   0.000000   0.000000  
; Missing  Rim Elevation
2A               24.292415  9.999585   0.000000   0.000000   0.000000  
2A-0-0           37.639999  4.660000   0.000000   0.000000   0.000000  
2A-0-1           37.799999  3.700001   0.000000   0.000000   0.000000  
2A-0-2           45.500000  5.500000   0.000000   0.000000   0.000000  
2A-1             49.000000  3.500000   0.000000   0.000000   0.000000  
2A-10            120.000000 20.000000  0.000000   0.000000   0.000000  
2A-10-3          53.900002  5.799999   0.000000   0.000000   0.000000  
2A-11            131.820000 9.940000   0.000000   0.000000   0.000000  
2A-12            138.950000 6.310000   0.000000   0.000000   0.000000  
2A-13            142.220001 3.600006   0.000000   0.000000   0.000000  
2A-13-0          142.220000 3.600000   0.000000   0.000000   0.000000  
2A-18            227.100006 5.099991   0.000000   0.000000   0.000000  
2A-18-0-1        271.700012 5.199982   0.000000   0.000000   0.000000  
2A-18-0-2        294.500000 2.899994   0.000000   0.000000   0.000000  
; Missing  Rim Elevation
2A-18-0-3        307.940387 9.999613   0.000000   0.000000   0.000000  
; Missing  Rim Elevation
2A-18-0-4        322.721157 9.999843   0.000000   0.000000   0.000000  
2A-18-1          246.100006 3.699997   0.000000   0.000000   0.000000  
2A-18-2          250.149994 3.850006   0.000000   0.000000   0.000000  
2A-19            261.140015 5.959991   0.000000   0.000000   0.000000  
2A-2             49.099998  14.500000  0.000000   0.000000   0.000000  
2A-20            273.850006 6.649994   0.000000   0.000000   0.000000  
2A-21            274.200012 9.000000   0.000000   0.000000   0.000000  
2A-22            305.579987 3.920013   0.000000   0.000000   0.000000  
2A-23            320.429993 5.070007   0.000000   0.000000   0.000000  
2A-24            332.140015 16.359985  0.000000   0.000000   0.000000  
2A-25            361.540009 5.059998   0.000000   0.000000   0.000000  
2A-26            382.750000 26.320007  0.000000   0.000000   0.000000  
2A-27            401.600006 7.500000   0.000000   0.000000   0.000000  
2A-28            425.899994 11.820007  0.000000   0.000000   0.000000  
2A-29            447.000000 11.299988  0.000000   0.000000   0.000000  
2A-3             49.509998  3.590000   0.000000   0.000000   0.000000  
2A-30            463.100006 16.179993  0.000000   0.000000   0.000000  
2A-31            467.649994 17.510010  0.000000   0.000000   0.000000  
2A-32            475.570007 18.529999  0.000000   0.000000   0.000000  
2A-33            490.000000 19.000000  0.000000   0.000000   0.000000  
2A-34            492.100006 16.790009  0.000000   0.000000   0.000000  
2A-34-1          493.570007 5.429993   0.000000   0.000000   0.000000  
2A-34-2          511.010010 4.690002   0.000000   0.000000   0.000000  
2A-34-3          514.099976 5.900024   0.000000   0.000000   0.000000  
2A-34-4          518.099976 4.000000   0.000000   0.000000   0.000000  
2A-34-4-1        518.400024 12.399963  0.000000   0.000000   0.000000  
2A-34-5          519.400024 3.599976   0.000000   0.000000   0.000000  
2A-34-5-1        541.770020 9.940002   0.000000   0.000000   0.000000  
2A-34-5-2        552.909973 11.800049  0.000000   0.000000   0.000000  
2A-34-5-3        563.289978 14.559998  0.000000   0.000000   0.000000  
2A-34-5-4        573.150024 7.649963   0.000000   0.000000   0.000000  
2A-34-5-4-1      575.179993 16.320007  0.000000   0.000000   0.000000  
2A-34-5-4-2      591.200012 7.200012   0.000000   0.000000   0.000000  
2A-34-5-4-3      596.789978 11.800049  0.000000   0.000000   0.000000  
2A-34-5-4-4      617.059998 12.099976  0.000000   0.000000   0.000000  
2A-35            513.719971 3.900024   0.000000   0.000000   0.000000  
2A-36            521.349976 4.150024   0.000000   0.000000   0.000000  
2A-37            567.599976 4.200012   0.000000   0.000000   0.000000  
2A-38            605.400024 4.299988   0.000000   0.000000   0.000000  
2A-39            606.840027 6.159973   0.000000   0.000000   0.000000  
2A-4             49.570000  7.430000   0.000000   0.000000   0.000000  
2A-4-0           49.799999  11.500000  0.000000   0.000000   0.000000  
2A-40            607.880005 7.119995   0.000000   0.000000   0.000000  
2A-5             50.200001  13.299999  0.000000   0.000000   0.000000  
2A-5-0           50.529999  6.500000   0.000000   0.000000   0.000000  
2A-6             50.500000  6.000000   0.000000   0.000000   0.000000  
2A-7             51.200001  7.799999   0.000000   0.000000   0.000000  
2A-8             50.000000  8.000000   0.000000   0.000000   0.000000  
; Missing  Rim Elevation
2A-9             91.400000  10.000000  0.000000   0.000000   0.000000  
2B-0             49.700001  3.099998   0.000000   0.000000   0.000000  
2B-0-0           56.500000  4.299999   0.000000   0.000000   0.000000  
2B-0-1           67.300003  4.699997   0.000000   0.000000   0.000000  
2B-0-10          211.000000 7.399994   0.000000   0.000000   0.000000  
2B-0-11          220.100006 4.899994   0.000000   0.000000   0.000000  
2B-0-12          225.399994 4.600006   0.000000   0.000000   0.000000  
2B-0-13          245.000000 10.000000  0.000000   0.000000   0.000000  
2B-0-14          246.300003 18.599991  0.000000   0.000000   0.000000  
2B-0-15          247.500000 12.429993  0.000000   0.000000   0.000000  
2B-0-2           75.800003  4.899994   0.000000   0.000000   0.000000  
2B-0-3           80.449997  4.850006   0.000000   0.000000   0.000000  
2B-0-4           122.599998 6.099998   0.000000   0.000000   0.000000  
2B-0-5           143.429993 5.870010   0.000000   0.000000   0.000000  
2B-0-6           162.520004 4.879990   0.000000   0.000000   0.000000  
2B-0-7           185.000000 5.199997   0.000000   0.000000   0.000000  
2B-0-8           201.000000 5.800003   0.000000   0.000000   0.000000  
2B-0-9           201.800003 7.099991   0.000000   0.000000   0.000000  
2B-1             72.900002  6.400002   0.000000   0.000000   0.000000  
; Missing  Rim Elevation
2B-1-0           106.253781 10.000219  0.000000   0.000000   0.000000  
2B-16            247.899994 11.899994  0.000000   0.000000   0.000000  
2B-17            248.300003 6.199997   0.000000   0.000000   0.000000  
2B-18            248.539993 8.259995   0.000000   0.000000   0.000000  
2B-19            261.329987 14.170013  0.000000   0.000000   0.000000  
2B-2             137.699997 10.600006  0.000000   0.000000   0.000000  
2B-2-1           170.399994 7.700012   0.000000   0.000000   0.000000  
2B-2-2           181.399994 7.000000   0.000000   0.000000   0.000000  
2B-2-3           197.699997 12.500000  0.000000   0.000000   0.000000  
2B-2-4           201.699997 9.300003   0.000000   0.000000   0.000000  
2B-2-5           216.399994 9.900009   0.000000   0.000000   0.000000  
; Missing  Rim Elevation
2B-2-5-1         228.479220 9.999780   0.000000   0.000000   0.000000  
2B-2-6           240.990005 10.009995  0.000000   0.000000   0.000000  
2B-20            306.609985 6.390015   0.000000   0.000000   0.000000  
2B-21            332.609985 7.640015   0.000000   0.000000   0.000000  
2B-21-1          317.600006 7.089996   0.000000   0.000000   0.000000  
2B-22            391.910004 5.589996   0.000000   0.000000   0.000000  
2B-23            423.350006 5.649994   0.000000   0.000000   0.000000  
2B-23-1          455.549988 6.750000   0.000000   0.000000   0.000000  
2B-23-2          461.670013 9.829987   0.000000   0.000000   0.000000  
2B-23-3          464.029999 6.269989   0.000000   0.000000   0.000000  
2B-23-4          476.809998 9.190002   0.000000   0.000000   0.000000  
2B-23-5          488.510010 6.500000   0.000000   0.000000   0.000000  
2B-23-5-1        507.850006 8.149994   0.000000   0.000000   0.000000  
2B-23-5-2        524.390015 8.109985   0.000000   0.000000   0.000000  
2B-23-5-3        554.299988 9.169983   0.000000   0.000000   0.000000  
2B-23-5-4        572.809998 8.450012   0.000000   0.000000   0.000000  
2B-23-5-5        583.400024 17.399963  0.000000   0.000000   0.000000  
2B-23-5-6        621.799988 15.200012  0.000000   0.000000   0.000000  
; Missing  Rim Elevation
2B-23-5-6-0      605.735281 9.999719   0.000000   0.000000   0.000000  
2B-23-5-7        626.200012 17.500000  0.000000   0.000000   0.000000  
2B-23-5-8        653.400024 18.099976  0.000000   0.000000   0.000000  
2B-23-6          491.100006 5.399994   0.000000   0.000000   0.000000  
2B-23-7          497.299988 12.200012  0.000000   0.000000   0.000000  
2B-23-8          502.500000 19.400024  0.000000   0.000000   0.000000  
2B-23-8-1        509.100006 11.600006  0.000000   0.000000   0.000000  
2B-23-8-2        542.200012 10.299988  0.000000   0.000000   0.000000  
2B-23-8-3        559.299988 7.200012   0.000000   0.000000   0.000000  
2B-23-8-4        576.799988 4.200012   0.000000   0.000000   0.000000  
2B-23-8-5        615.000000 13.299988  0.000000   0.000000   0.000000  
2B-23-8-6        639.400024 10.500000  0.000000   0.000000   0.000000  
2B-24            468.019989 9.980011   0.000000   0.000000   0.000000  
2B-25            471.019989 4.480011   0.000000   0.000000   0.000000  
2B-26            473.829987 8.170013   0.000000   0.000000   0.000000  
2B-27            484.779999 8.420013   0.000000   0.000000   0.000000  
2B-28            485.529999 7.670013   0.000000   0.000000   0.000000  
2B-29            494.399994 14.100006  0.000000   0.000000   0.000000  
2B-3             138.750000 7.250000   0.000000   0.000000   0.000000  
2B-30            530.489990 5.710022   0.000000   0.000000   0.000000  
2B-31            531.150024 5.649963   0.000000   0.000000   0.000000  
2B-32            539.969971 16.030029  0.000000   0.000000   0.000000  
2B-33            541.640015 24.359985  0.000000   0.000000   0.000000  
2B-34            542.780029 6.419983   0.000000   0.000000   0.000000  
2B-35            543.659973 10.840027  0.000000   0.000000   0.000000  
2B-36            545.190002 9.309998   0.000000   0.000000   0.000000  
2B-37            546.940002 10.059998  0.000000   0.000000   0.000000  
2B-38            547.739990 11.059998  0.000000   0.000000   0.000000  
2B-38-1          548.030029 13.969971  0.000000   0.000000   0.000000  
2B-38-10         555.880005 3.219971   0.000000   0.000000   0.000000  
2B-38-11         567.049988 6.850037   0.000000   0.000000   0.000000  
2B-38-12         567.669983 9.330017   0.000000   0.000000   0.000000  
2B-38-13         568.440002 14.059998  0.000000   0.000000   0.000000  
2B-38-14         569.799988 13.400024  0.000000   0.000000   0.000000  
2B-38-15         572.520020 8.279968   0.000000   0.000000   0.000000  
2B-38-16         573.239990 6.559998   0.000000   0.000000   0.000000  
2B-38-17         574.340027 5.559998   0.000000   0.000000   0.000000  
2B-38-18         576.000000 8.700012   0.000000   0.000000   0.000000  
2B-38-19         584.299988 6.299988   0.000000   0.000000   0.000000  
2B-38-2          548.969971 14.630005  0.000000   0.000000   0.000000  
2B-38-20         586.200012 8.599976   0.000000   0.000000   0.000000  
2B-38-21         603.099976 8.300049   0.000000   0.000000   0.000000  
2B-38-22         619.799988 7.989990   0.000000   0.000000   0.000000  
2B-38-3          549.609985 21.390015  0.000000   0.000000   0.000000  
2B-38-4          550.450012 17.049988  0.000000   0.000000   0.000000  
2B-38-5          551.080017 16.519958  0.000000   0.000000   0.000000  
2B-38-5-1        581.599976 9.200012   0.000000   0.000000   0.000000  
2B-38-5-10       628.830017 7.469971   0.000000   0.000000   0.000000  
2B-38-5-2        585.200012 7.299988   0.000000   0.000000   0.000000  
2B-38-5-3        590.799988 6.600037   0.000000   0.000000   0.000000  
2B-38-5-4        604.799988 6.700012   0.000000   0.000000   0.000000  
2B-38-5-5        607.900024 8.899963   0.000000   0.000000   0.000000  
2B-38-5-6        625.729980 6.070007   0.000000   0.000000   0.000000  
2B-38-5-7        626.409973 5.790039   0.000000   0.000000   0.000000  
2B-38-5-8        627.419983 10.980042  0.000000   0.000000   0.000000  
2B-38-5-9        628.049988 7.549988   0.000000   0.000000   0.000000  
2B-38-6          551.830017 12.969971  0.000000   0.000000   0.000000  
2B-38-7          552.739990 7.760010   0.000000   0.000000   0.000000  
2B-38-8          554.090027 10.209961  0.000000   0.000000   0.000000  
2B-38-9          555.090027 7.409973   0.000000   0.000000   0.000000  
2B-39            555.849976 7.650024   0.000000   0.000000   0.000000  
2B-4             139.100006 8.399994   0.000000   0.000000   0.000000  
2B-40            562.669983 7.830017   0.000000   0.000000   0.000000  
2B-41            574.179993 5.820007   0.000000   0.000000   0.000000  
2B-42            577.580017 9.919983   0.000000   0.000000   0.000000  
2B-43            587.510010 9.589966   0.000000   0.000000   0.000000  
2B-44            596.429993 12.570007  0.000000   0.000000   0.000000  
2B-45            599.000000 11.599976  0.000000   0.000000   0.000000  
2B-46            606.599976 13.400024  0.000000   0.000000   0.000000  
2B-47            621.599976 9.200012   0.000000   0.000000   0.000000  
2B-48            634.099976 10.900024  0.000000   0.000000   0.000000  
2B-49            635.380005 7.619995   0.000000   0.000000   0.000000  
2B-49-1          653.550000 11.400000  0.000000   0.000000   0.000000  
2B-5             146.399994 7.200012   0.000000   0.000000   0.000000  
2B-50            636.080017 5.419983   0.000000   0.000000   0.000000  
2B-51            636.950012 4.549988   0.000000   0.000000   0.000000  
; Missing  Rim Elevation
2B-51-1          638.240846 10.000154  0.000000   0.000000   0.000000  
2B-52            638.880005 6.119995   0.000000   0.000000   0.000000  
2B-52-1          654.980000 12.500000  0.000000   0.000000   0.000000  
2B-52-2          663.040000 4.250000   0.000000   0.000000   0.000000  
2B-52-3          665.590000 10.800000  0.000000   0.000000   0.000000  
2B-52-4          672.670000 10.600000  0.000000   0.000000   0.000000  
2B-53            644.049988 5.950012   0.000000   0.000000   0.000000  
2B-53-1          647.160000 7.040000   0.000000   0.000000   0.000000  
2B-54            645.450012 9.059998   0.000000   0.000000   0.000000  
2B-55            648.479980 4.850037   0.000000   0.000000   0.000000  
2B-56            651.070007 4.429993   0.000000   0.000000   0.000000  
2B-57            666.260010 4.739990   0.000000   0.000000   0.000000  
2B-58            667.179993 9.320007   0.000000   0.000000   0.000000  
2B-6             146.979996 9.500000   0.000000   0.000000   0.000000  
2B-7             148.300003 18.300003  0.000000   0.000000   0.000000  
2B-7-1           150.199997 6.500000   0.000000   0.000000   0.000000  
2B-7-10          193.979996 9.120010   0.000000   0.000000   0.000000  
2B-7-11          194.259995 3.639999   0.000000   0.000000   0.000000  
2B-7-12          208.020004 5.479996   0.000000   0.000000   0.000000  
2B-7-13          220.589996 11.910004  0.000000   0.000000   0.000000  
2B-7-14          221.529999 6.270004   0.000000   0.000000   0.000000  
2B-7-15          222.800003 21.800003  0.000000   0.000000   0.000000  
2B-7-15-1        248.000000 5.000000   0.000000   0.000000   0.000000  
2B-7-16          223.630005 21.470001  0.000000   0.000000   0.000000  
2B-7-17          224.490005 11.110001  0.000000   0.000000   0.000000  
2B-7-18          224.910004 20.789993  0.000000   0.000000   0.000000  
2B-7-19          225.449997 16.350006  0.000000   0.000000   0.000000  
2B-7-2           152.000000 8.600006   0.000000   0.000000   0.000000  
2B-7-20          227.000000 9.000000   0.000000   0.000000   0.000000  
2B-7-3           153.100006 4.299988   0.000000   0.000000   0.000000  
2B-7-4           164.000000 15.800003  0.000000   0.000000   0.000000  
2B-7-5           164.800003 13.599991  0.000000   0.000000   0.000000  
2B-7-6           171.899994 4.900009   0.000000   0.000000   0.000000  
2B-7-7           181.529999 7.470001   0.000000   0.000000   0.000000  
2B-7-8           182.190002 5.110001   0.000000   0.000000   0.000000  
2B-7-9           193.309998 4.990005   0.000000   0.000000   0.000000  
2C-1             257.179993 5.820007   0.000000   0.000000   0.000000  
2C-2             258.799988 5.700012   0.000000   0.000000   0.000000  
2C-3             321.600006 15.199982  0.000000   0.000000   0.000000  
2C-4             368.299988 18.000000  0.000000   0.000000   0.000000  
2C-4-0-1         369.700012 11.699982  0.000000   0.000000   0.000000  