[TITLE]
;;Project Title/Notes

[OPTIONS]
;;Option             Value
FLOW_UNITS           LPS
INFILTRATION         HORTON
FLOW_ROUTING         DYNWAVE
LINK_OFFSETS         DEPTH
MIN_SLOPE            0
ALLOW_PONDING        NO
SKIP_STEADY_STATE    NO

START_DATE           01/01/2002
START_TIME           00:00:00
REPORT_START_DATE    01/01/2002
REPORT_START_TIME    00:00:00
END_DATE             01/01/2002
END_TIME             04:00:00
SWEEP_START          01/01
SWEEP_END            12/31
DRY_DAYS             5.000000
REPORT_STEP          00:05:00
WET_STEP             01:00:00
DRY_STEP             23:00:00
ROUTING_STEP         0:00:10 

INERTIAL_DAMPING     NONE
NORMAL_FLOW_LIMITED  BOTH
FORCE_MAIN_EQUATION  H-W
VARIABLE_STEP        0.75
LENGTHENING_STEP     5
MIN_SURFAREA         1.14
MAX_TRIALS           8
HEAD_TOLERANCE       0.0001
SYS_FLOW_TOL         5
LAT_FLOW_TOL         5
MINIMUM_STEP         0
THREADS              7

[EVAPORATION]
;;Data Source    Parameters
;;-------------- ----------------
CONSTANT         0.0
DRY_ONLY         NO

[JUNCTIONS]
;;Name           Elevation  MaxDepth   InitDepth  SurDepth   Aponded   
;;-------------- ---------- ---------- ---------- ---------- ----------
; 0001
KWL_N_0001       665.719000 3.000000   0.000000   304.878049 0.000000  
; 0002
KWL_N_0002       665.268000 3.000000   0.000000   304.878049 0.000000  
; 0003
KWL_N_0003       659.898800 5.330000   0.000000   304.878049 0.000000  
; 0004
KWL_N_0004       668.219900 3.140000   0.000000   304.878049 0.000000  
; 0005
KWL_N_0005       665.754100 2.940000   0.000000   304.878049 0.000000  
; 0006
KWL_N_0006       666.589000 3.000000   0.000000   304.878049 0.000000  
; 0007
KWL_N_0007       661.664700 6.080000   0.000000   304.878049 0.000000  
; 0008
KWL_N_0008       658.306100 4.510000   0.000000   304.878049 0.000000  
; 0009
KWL_N_0009       664.787700 2.530000   0.000000   304.878049 0.000000  
; 0010
KWL_N_0010       665.349518 3.000482   0.000000   304.878049 0.000000  
; 0011
KWL_N_0011       665.010400 2.750000   0.000000   304.878049 0.000000  
; 0012
KWL_N_0012       700.865100 4.550000   0.000000   304.878049 0.000000  
; 0013
KWL_N_0013       698.876500 4.510000   0.000000   304.878049 0.000000  
; 0014
KWL_N_0014       695.298500 5.760000   0.000000   304.878049 0.000000  
; 0016
KWL_N_0016       661.760200 2.990000   0.000000   304.878049 0.000000  
; 0017
KWL_N_0017       661.649800 2.950000   0.000000   304.878049 0.000000  
; 0018
KWL_N_0018       666.246000 3.000000   0.000000   304.878049 0.000000  
; 0019
KWL_N_0019       664.800334 3.000001   0.000000   304.878049 0.000000  
; 0020
KWL_N_0020       664.412639 4.343361   0.000000   304.878049 0.000000  
; 0021
KWL_N_0021       663.171095 4.085085   0.000000   304.878049 0.000000  
; 0022
KWL_N_0022       709.468200 2.330000   0.000000   304.878049 0.000000  
; 0023
KWL_N_0023       709.009700 3.220000   0.000000   304.878049 0.000000  
; 0024
KWL_N_0024       717.533100 2.850000   0.000000   304.878049 0.000000  
; 0025
KWL_N_0025       709.074900 4.240000   0.000000   304.878049 0.000000  
; 0026
KWL_N_0026       715.782600 2.800000   0.000000   304.878049 0.000000  
; 0027
KWL_N_0027       717.836400 2.900000   0.000000   304.878049 0.000000  
; 0028
KWL_N_0028       719.303700 2.770000   0.000000   304.878049 0.000000  
; 0029
KWL_N_0029       704.319600 4.180000   0.000000   304.878049 0.000000  
; 0031
KWL_N_0031       704.100100 3.170000   0.000000   304.878049 0.000000  
; 0033
KWL_N_0033       698.342100 3.740000   0.000000   304.878049 0.000000  
; 0034
KWL_N_0034       694.660600 3.930000   0.000000   304.878049 0.000000  
; 0035
KWL_N_0035       692.997100 2.970000   0.000000   304.878049 0.000000  
; 0036
KWL_N_0036       656.394400 2.660000   0.000000   304.878049 0.000000  
; 0037
KWL_N_0037       656.015700 3.420000   0.000000   304.878049 0.000000  
; 0038
KWL_N_0038       655.638700 4.040000   0.000000   304.878049 0.000000  
; 0039
KWL_N_0039       654.793700 4.881900   0.000000   304.878049 0.000000  
; 0040
KWL_N_0040       664.940700 3.000000   0.000000   304.878049 0.000000  
; 0041
KWL_N_0041       664.740900 3.140000   0.000000   304.878049 0.000000  
; 0042
KWL_N_0042       654.444600 3.720000   0.000000   304.878049 0.000000  
; 0043
KWL_N_0043       653.208300 3.410000   0.000000   304.878049 0.000000  
; 0044
KWL_N_0044       653.869600 3.460000   0.000000   304.878049 0.000000  
; 0045
KWL_N_0045       654.168500 3.810000   0.000000   304.878049 0.000000  
; 0046
KWL_N_0046       659.360800 2.740000   0.000000   304.878049 0.000000  
; 0047
KWL_N_0047       658.200500 3.970000   0.000000   304.878049 0.000000  
; 0048
KWL_N_0048       694.611600 2.940000   0.000000   304.878049 0.000000  
; 0049
KWL_N_0049       665.153700 2.540000   0.000000   304.878049 0.000000  
; 0050
KWL_N_0050       703.997400 2.660000   0.000000   304.878049 0.000000  
; 0051
KWL_N_0051       652.214800 2.950000   0.000000   304.878049 0.000000  
; 0052
KWL_N_0052       648.508600 4.030000   0.000000   304.878049 0.000000  
; 0053
KWL_N_0053       648.883800 3.570000   0.000000   304.878049 0.000000  
; 0054
KWL_N_0054       649.570900 4.980000   0.000000   304.878049 0.000000  
; 0055
KWL_N_0055       649.230796 3.000000   0.000000   304.878049 0.000000  
; 0057
KWL_N_0057       647.668600 4.830000   0.000000   304.878049 0.000000  
; 0059
KWL_N_0059       648.329766 4.484234   0.000000   304.878049 0.000000  
; 0060
KWL_N_0060       648.837671 3.000000   0.000000   304.878049 0.000000  
; 0061
KWL_N_0061       650.623000 3.840000   0.000000   304.878049 0.000000  
; 0062
KWL_N_0062       651.098500 2.920000   0.000000   304.878049 0.000000  
; 0063
KWL_N_0063       650.311300 3.400000   0.000000   304.878049 0.000000  
; 0064
KWL_N_0064       651.984600 3.470000   0.000000   304.878049 0.000000  
; 0065
KWL_N_0065       650.115300 5.350000   0.000000   304.878049 0.000000  
; 0066
KWL_N_0066       676.143700 3.000000   0.000000   304.878049 0.000000  
; 0067
KWL_N_0067       670.135000 3.000300   0.000000   304.878049 0.000000  
; 0068
KWL_N_0068       675.985700 2.750000   0.000000   304.878049 0.000000  
; 0069
KWL_N_0069       659.726000 4.940000   0.000000   304.878049 0.000000  
; 0070
KWL_N_0070       651.320000 6.110000   0.000000   304.878049 0.000000  
; 0071
KWL_N_0071       651.240300 5.960000   0.000000   304.878049 0.000000  
; 0072
KWL_N_0072       651.094900 4.460000   0.000000   304.878049 0.000000  
; 0073
KWL_N_0073       650.806829 3.043172   0.000000   304.878049 0.000000  
; 0074
KWL_N_0074       650.611400 3.830000   0.000000   304.878049 0.000000  
; 0075
KWL_N_0075       650.536882 3.000000   0.000000   304.878049 0.000000  
; 0076
KWL_N_0076       653.794000 7.117700   0.000000   304.878049 0.000000  
; 0077
KWL_N_0077       656.774700 2.970000   0.000000   304.878049 0.000000  
; 0078
KWL_N_0078       656.643900 3.950000   0.000000   304.878049 0.000000  
; 0079
KWL_N_0079       656.282800 4.440000   0.000000   304.878049 0.000000  
; 0080
KWL_N_0080       653.513000 7.129400   0.000000   304.878049 0.000000  
; 0081
KWL_N_0081       653.595368 5.969332   0.000000   304.878049 0.000000  
; 0082
KWL_N_0082       653.812553 7.136647   0.000000   304.878049 0.000000  
; 0083
KWL_N_0083       653.938000 6.033000   0.000000   304.878049 0.000000  
; 0084
KWL_N_0084       687.273200 3.480000   0.000000   304.878049 0.000000  
; 0085
KWL_N_0085       657.415100 2.830000   0.000000   304.878049 0.000000  
; 0086
KWL_N_0086       656.943800 2.750000   0.000000   304.878049 0.000000  
; 0087
KWL_N_0087       652.760000 7.582900   0.000000   304.878049 0.000000  
; 0088
KWL_N_0088       652.971000 7.334100   0.000000   304.878049 0.000000  
; 0089
KWL_N_0089       653.113100 6.980000   0.000000   304.878049 0.000000  
; 0090
KWL_N_0090       653.291334 6.619066   0.000000   304.878049 0.000000  
; 0091
KWL_N_0091       653.458700 6.790000   0.000000   304.878049 0.000000  
; 0092
KWL_N_0092       653.459000 7.285300   0.000000   304.878049 0.000000  
; 0093
KWL_N_0093       652.630000 3.333766   0.000000   304.878049 0.000000  
; 0094
KWL_N_0094       652.556400 6.650000   0.000000   304.878049 0.000000  
; 0095
KWL_N_0095       652.407590 6.467410   0.000000   304.878049 0.000000  
; 0096
KWL_N_0096       652.316100 6.140000   0.000000   304.878049 0.000000  
; 0097
KWL_N_0097       652.228866 3.019677   0.000000   304.878049 0.000000  
; 0099
KWL_N_0099       652.107500 6.020000   0.000000   304.878049 0.000000  
; 0100
KWL_N_0100       652.014300 5.630000   0.000000   304.878049 0.000000  
; 0101
KWL_N_0101       651.938100 5.420000   0.000000   304.878049 0.000000  
; 0102
KWL_N_0102       651.811600 5.300000   0.000000   304.878049 0.000000  
; 0103
KWL_N_0103       651.704300 4.910000   0.000000   304.878049 0.000000  
; 0104
KWL_N_0104       651.648000 5.020000   0.000000   304.878049 0.000000  
; 0105
KWL_N_0105       653.731799 2.970701   0.000000   304.878049 0.000000  
; 0106
KWL_N_0106       653.238800 3.360000   0.000000   304.878049 0.000000  
; 0107
KWL_N_0107       651.580000 5.438000   0.000000   304.878049 0.000000  
; 0108
KWL_N_0108       651.581000 5.387500   0.000000   304.878049 0.000000  
; 0109
KWL_N_0109       651.374500 5.810000   0.000000   304.878049 0.000000  
; 0110
KWL_N_0110       653.389400 3.910000   0.000000   304.878049 0.000000  
; 0111
KWL_N_0111       653.301400 5.110000   0.000000   304.878049 0.000000  
; 0112
KWL_N_0112       655.428700 4.100000   0.000000   304.878049 0.000000  
; 0113
KWL_N_0113       655.934600 4.030000   0.000000   304.878049 0.000000  
; 0114
KWL_N_0114       656.378200 3.650000   0.000000   304.878049 0.000000  
; 0115
KWL_N_0115       656.729300 3.090000   0.000000   304.878049 0.000000  
; 0116
KWL_N_0116       657.100500 2.950000   0.000000   304.878049 0.000000  
; 0117
KWL_N_0117       654.440000 4.374400   0.000000   304.878049 0.000000  
; 0118
KWL_N_0118       708.470000 3.100000   0.000000   304.878049 0.000000  
; 0119
KWL_N_0119       704.651200 4.170000   0.000000   304.878049 0.000000  
; 0120
KWL_N_0120       700.658400 3.230000   0.000000   304.878049 0.000000  
; 0121
KWL_N_0121       668.996900 3.570000   0.000000   304.878049 0.000000  
; 0122
KWL_N_0122       658.905800 3.200000   0.000000   304.878049 0.000000  
; 0123
KWL_N_0123       705.863186 3.715114   0.000000   304.878049 0.000000  
; 0124
KWL_N_0124       659.206900 3.770000   0.000000   304.878049 0.000000  
; 0125
KWL_N_0125       657.036000 4.280000   0.000000   304.878049 0.000000  
; 0126
KWL_N_0126       654.353300 4.790000   0.000000   304.878049 0.000000  
; 0127
KWL_N_0127       654.144700 5.230000   0.000000   304.878049 0.000000  
; 0128
KWL_N_0128       654.407300 5.020000   0.000000   304.878049 0.000000  
; 0129
KWL_N_0129       654.742700 4.560000   0.000000   304.878049 0.000000  
; 0130
KWL_N_0130       654.942600 4.710000   0.000000   304.878049 0.000000  
; 0131
KWL_N_0131       654.820100 4.950000   0.000000   304.878049 0.000000  
; 0132
KWL_N_0132       670.529025 3.065540   0.000000   304.878049 0.000000  
; 0133
KWL_N_0133       671.613246 3.000000   0.000000   304.878049 0.000000  
; 0134
KWL_N_0134       661.558500 2.890000   0.000000   304.878049 0.000000  
; 0135
KWL_N_0135       658.389200 3.690000   0.000000   304.878049 0.000000  
; 0136
KWL_N_0136       655.139800 4.630000   0.000000   304.878049 0.000000  
; 0137
KWL_N_0137       655.459000 3.910000   0.000000   304.878049 0.000000  
; 0138
KWL_N_0138       655.614467 3.004623   0.000000   304.878049 0.000000  
; 0139
KWL_N_0139       655.799600 3.970000   0.000000   304.878049 0.000000  
; 0140
KWL_N_0140       656.014385 4.866815   0.000000   304.878049 0.000000  
; 0141
KWL_N_0141       702.015600 3.890000   0.000000   304.878049 0.000000  
; 0142
KWL_N_0142       700.254700 3.060000   0.000000   304.878049 0.000000  
; 0143
KWL_N_0143       695.298700 3.840000   0.000000   304.878049 0.000000  
; 0144
KWL_N_0144       687.731100 5.900000   0.000000   304.878049 0.000000  
; 0145
KWL_N_0145       687.198400 3.260000   0.000000   304.878049 0.000000  
; 0146
KWL_N_0146       682.606200 2.620000   0.000000   304.878049 0.000000  
; 0148
KWL_N_0148       677.183700 2.680000   0.000000   304.878049 0.000000  
; 0149
KWL_N_0149       698.520900 2.790000   0.000000   304.878049 0.000000  
; 0150
KWL_N_0150       700.278300 3.420000   0.000000   304.878049 0.000000  
; 0151
KWL_N_0151       696.316740 2.854960   0.000000   304.878049 0.000000  
; 0152
KWL_N_0152       695.141500 2.320000   0.000000   304.878049 0.000000  
; 0153
KWL_N_0153       662.917000 3.819000   0.000000   304.878049 0.000000  
; 0154
KWL_N_0154       648.779716 3.731384   0.000000   304.878049 0.000000  
; 0157
KWL_N_0157       652.988000 3.000000   0.000000   304.878049 0.000000  
; 0158
KWL_N_0158       655.376700 2.740000   0.000000   304.878049 0.000000  
; 0159
KWL_N_0159       656.731700 3.140000   0.000000   304.878049 0.000000  
; 0160
KWL_N_0160       696.696300 2.860000   0.000000   304.878049 0.000000  
; 0161
KWL_N_0161       697.539800 4.940000   0.000000   304.878049 0.000000  
; 0162
KWL_N_0162       653.400700 1.640000   0.000000   304.878049 0.000000  
; 0163
KWL_N_0163       653.670000 3.340000   0.000000   304.878049 0.000000  
; 0164
KWL_N_0164       654.352300 1.320000   0.000000   304.878049 0.000000  
; 0165
KWL_N_0165       650.263400 3.450000   0.000000   304.878049 0.000000  
; 0166
KWL_N_0166       652.822700 2.970000   0.000000   304.878049 0.000000  
; 0167
KWL_N_0167       652.103400 3.700000   0.000000   304.878049 0.000000  
; 0168
KWL_N_0168       663.748232 2.999768   0.000000   304.878049 0.000000  
; 0169
KWL_N_0169       658.457500 2.700000   0.000000   304.878049 0.000000  
; 0170
KWL_N_0170       657.327200 2.220000   0.000000   304.878049 0.000000  
; 0171
KWL_N_0171       656.655800 3.430000   0.000000   304.878049 0.000000  
; 0172
KWL_N_0172       654.852200 2.760000   0.000000   304.878049 0.000000  
; 0173
KWL_N_0173       654.996000 2.570000   0.000000   304.878049 0.000000  
; 0174
KWL_N_0174       654.985800 2.280000   0.000000   304.878049 0.000000  
; 0175
KWL_N_0175       654.573000 3.000000   0.000000   304.878049 0.000000  
; 0176
KWL_N_0176       723.803700 2.340000   0.000000   304.878049 0.000000  
; 0177
KWL_N_0177       717.818500 3.140000   0.000000   304.878049 0.000000  
; 0178
KWL_N_0178       715.631700 3.100000   0.000000   304.878049 0.000000  
; 0179
KWL_N_0179       715.065800 3.470000   0.000000   304.878049 0.000000  
; 0180
KWL_N_0180       713.207900 2.590000   0.000000   304.878049 0.000000  
; 0181
KWL_N_0181       713.462400 3.700000   0.000000   304.878049 0.000000  
; 0182
KWL_N_0182       709.807562 4.167238   0.000000   304.878049 0.000000  
; 0183
KWL_N_0183       710.123000 2.790000   0.000000   304.878049 0.000000  
; 0184
KWL_N_0184       707.715200 4.050000   0.000000   304.878049 0.000000  
; 0185
KWL_N_0185       707.250500 3.080000   0.000000   304.878049 0.000000  
; 0186
KWL_N_0186       705.348700 4.090000   0.000000   304.878049 0.000000  
; 0187
KWL_N_0187       702.066300 3.140000   0.000000   304.878049 0.000000  
; 0188
KWL_N_0188       692.396200 3.670000   0.000000   304.878049 0.000000  
; 0189
KWL_N_0189       668.794000 2.340000   0.000000   304.878049 0.000000  
; 0190
KWL_N_0190       725.039000 2.480000   0.000000   304.878049 0.000000  
; 0191
KWL_N_0191       716.587100 2.650000   0.000000   304.878049 0.000000  
; 0192
KWL_N_0192       717.789400 3.320000   0.000000   304.878049 0.000000  
; 0193
KWL_N_0193       716.817396 3.000000   0.000000   304.878049 0.000000  
; 0194
KWL_N_0194       727.089200 3.480000   0.000000   304.878049 0.000000  
; 0195
KWL_N_0195       725.387600 4.320000   0.000000   304.878049 0.000000  
; 0196
KWL_N_0196       722.486000 2.870000   0.000000   304.878049 0.000000  
; 0197
KWL_N_0197       660.695700 3.290000   0.000000   304.878049 0.000000  
; 0198
KWL_N_0198       658.867700 2.470000   0.000000   304.878049 0.000000  
; 0199
KWL_N_0199       658.105949 2.531551   0.000000   304.878049 0.000000  
; 0200
KWL_N_0200       662.096821 3.000179   0.000000   304.878049 0.000000  
; 0201
KWL_N_0201       659.396200 3.410000   0.000000   304.878049 0.000000  
; 0202
KWL_N_0202       662.715300 2.820000   0.000000   304.878049 0.000000  
; 0203
KWL_N_0203       661.953100 2.720000   0.000000   304.878049 0.000000  
; 0204
KWL_N_0204       664.522400 2.940000   0.000000   304.878049 0.000000  
; 0205
KWL_N_0205       665.854000 1.800000   0.000000   304.878049 0.000000  
; 0207
KWL_N_0207       670.726000 3.000000   0.000000   304.878049 0.000000  
; 0208
KWL_N_0208       663.149500 2.720000   0.000000   304.878049 0.000000  
; 0209
KWL_N_0209       671.251200 2.290000   0.000000   304.878049 0.000000  
; 0210
KWL_N_0210       655.547300 2.950000   0.000000   304.878049 0.000000  
; 0211
KWL_N_0211       654.892100 4.690000   0.000000   304.878049 0.000000  
; 0212
KWL_N_0212       659.685800 2.730000   0.000000   304.878049 0.000000  
; 0213
KWL_N_0213       660.215500 2.760000   0.000000   304.878049 0.000000  
; 0214
KWL_N_0214       661.319200 2.730000   0.000000   304.878049 0.000000  
; 0215
KWL_N_0215       660.253700 3.000300   0.000000   304.878049 0.000000  
; 0216
KWL_N_0216       666.216900 2.790000   0.000000   304.878049 0.000000  
; 0217
KWL_N_0217       660.628000 2.450000   0.000000   304.878049 0.000000  
; 0218
KWL_N_0218       659.912300 2.720000   0.000000   304.878049 0.000000  
; 0219
KWL_N_0219       657.926664 8.362036   0.000000   304.878049 0.000000  
; 0220
KWL_N_0220       658.333300 2.600000   0.000000   304.878049 0.000000  
; 0221
KWL_N_0221       659.773000 2.520000   0.000000   304.878049 0.000000  
; 0222
KWL_N_0222       660.345300 2.490000   0.000000   304.878049 0.000000  
; 0223
KWL_N_0223       659.087000 2.830000   0.000000   304.878049 0.000000  
; 0224
KWL_N_0224       658.587800 2.630000   0.000000   304.878049 0.000000  
; 0225
KWL_N_0225       656.788300 2.440000   0.000000   304.878049 0.000000  
; 0226
KWL_N_0226       656.263700 3.310000   0.000000   304.878049 0.000000  
; 0227
KWL_N_0227       655.949200 2.360000   0.000000   304.878049 0.000000  
; 0228
KWL_N_0228       659.238400 3.200000   0.000000   304.878049 0.000000  
; 0229
KWL_N_0229       662.110900 3.000000   0.000000   304.878049 0.000000  
; 0230
KWL_N_0230       662.013800 3.130000   0.000000   304.878049 0.000000  
; 0231
KWL_N_0231       663.062700 3.440000   0.000000   304.878049 0.000000  
; 0232
KWL_N_0232       661.524300 3.710000   0.000000   304.878049 0.000000  
; 0233
KWL_N_0233       666.091100 3.250000   0.000000   304.878049 0.000000  
; 0234
KWL_N_0234       663.235700 2.630000   0.000000   304.878049 0.000000  
; 0235
KWL_N_0235       660.959900 3.020000   0.000000   304.878049 0.000000  
; 0236
KWL_N_0236       659.746000 2.800800   0.000000   304.878049 0.000000  
; 0237
KWL_N_0237       659.125800 3.090000   0.000000   304.878049 0.000000  
; 0238
KWL_N_0238       655.389500 3.060000   0.000000   304.878049 0.000000  
; 0239
KWL_N_0239       659.235600 2.090000   0.000000   304.878049 0.000000  
; 0240
KWL_N_0240       658.134500 1.720000   0.000000   304.878049 0.000000  
; 0241
KWL_N_0241       656.422000 2.420400   0.000000   304.878049 0.000000  
; 0242
KWL_N_0242       656.220200 2.390000   0.000000   304.878049 0.000000  
; 0243
KWL_N_0243       655.630200 1.900000   0.000000   304.878049 0.000000  
; 0244
KWL_N_0244       656.278400 2.460000   0.000000   304.878049 0.000000  
; 0245
KWL_N_0245       657.143600 2.590000   0.000000   304.878049 0.000000  
; 0246
KWL_N_0246       696.854400 2.230000   0.000000   304.878049 0.000000  
; 0247
KWL_N_0247       693.612200 2.660000   0.000000   304.878049 0.000000  
; 0248
KWL_N_0248       685.091600 2.910000   0.000000   304.878049 0.000000  
; 0249
KWL_N_0249       684.843600 3.020000   0.000000   304.878049 0.000000  
; 0250
KWL_N_0250       680.905000 3.000000   0.000000   304.878049 0.000000  
; 0251
KWL_N_0251       691.398100 3.300000   0.000000   304.878049 0.000000  
; 0252
KWL_N_0252       689.009600 3.390000   0.000000   304.878049 0.000000  
; 0253
KWL_N_0253       683.738500 3.280000   0.000000   304.878049 0.000000  
; 0254
KWL_N_0254       678.907897 3.000103   0.000000   304.878049 0.000000  
; 0255
KWL_N_0255       662.955700 2.370000   0.000000   304.878049 0.000000  
; 0256
KWL_N_0256       664.559700 3.610000   0.000000   304.878049 0.000000  
; 0257
KWL_N_0257       663.498900 2.610000   0.000000   304.878049 0.000000  
; 0258
KWL_N_0258       663.507400 2.800000   0.000000   304.878049 0.000000  
; 0259
KWL_N_0259       658.052800 1.910000   0.000000   304.878049 0.000000  
; 0260
KWL_N_0260       659.961000 3.240000   0.000000   304.878049 0.000000  
; 0261
KWL_N_0261       663.020300 2.780000   0.000000   304.878049 0.000000  
; 0263
KWL_N_0263       664.118900 3.230000   0.000000   304.878049 0.000000  
; 0265
KWL_N_0265       663.711000 3.000000   0.000000   304.878049 0.000000  
; 0266
KWL_N_0266       665.624100 2.770000   0.000000   304.878049 0.000000  
; 0267
KWL_N_0267       663.830100 3.370000   0.000000   304.878049 0.000000  
; 0268
KWL_N_0268       668.285000 3.000000   0.000000   304.878049 0.000000  
; 0269
KWL_N_0269       663.296300 3.320000   0.000000   304.878049 0.000000  
; 0270
KWL_N_0270       666.577600 3.200000   0.000000   304.878049 0.000000  
; 0271
KWL_N_0271       665.564728 2.357672   0.000000   304.878049 0.000000  
; 0272
KWL_N_0272       665.122700 2.930000   0.000000   304.878049 0.000000  
; 0273
KWL_N_0273       661.025000 3.030000   0.000000   304.878049 0.000000  
; 0274
KWL_N_0274       657.330700 2.460000   0.000000   304.878049 0.000000  
; 0275
KWL_N_0275       719.090900 2.530000   0.000000   304.878049 0.000000  
; 0276
KWL_N_0276       716.061100 2.999900   0.000000   304.878049 0.000000  
; 0277
KWL_N_0277       694.536500 3.150000   0.000000   304.878049 0.000000  
; 0278
KWL_N_0278       696.462800 3.570000   0.000000   304.878049 0.000000  
; 0279
KWL_N_0279       701.063811 3.000189   0.000000   304.878049 0.000000  
; 0280
KWL_N_0280       701.547900 3.370000   0.000000   304.878049 0.000000  
; 0281
KWL_N_0281       698.401600 2.630000   0.000000   304.878049 0.000000  
; 0282
KWL_N_0282       692.516200 3.860000   0.000000   304.878049 0.000000  
; 0283
KWL_N_0283       689.459700 3.830000   0.000000   304.878049 0.000000  
; 0284
KWL_N_0284       694.290200 2.740000   0.000000   304.878049 0.000000  
; 0285
KWL_N_0285       696.181500 2.890000   0.000000   304.878049 0.000000  
; 0286
KWL_N_0286       689.563300 3.440000   0.000000   304.878049 0.000000  
; 0287
KWL_N_0287       690.368100 2.890000   0.000000   304.878049 0.000000  
; 0288
KWL_N_0288       683.097200 2.960000   0.000000   304.878049 0.000000  
; 0289
KWL_N_0289       683.717600 3.090000   0.000000   304.878049 0.000000  
; 0290
KWL_N_0290       679.790000 3.000000   0.000000   304.878049 0.000000  
; 0291
KWL_N_0291       678.333100 2.490000   0.000000   304.878049 0.000000  
; 0292
KWL_N_0292       680.966700 4.420000   0.000000   304.878049 0.000000  
; 0293
KWL_N_0293       709.609000 3.000000   0.000000   304.878049 0.000000  
; 0294
KWL_N_0294       709.823000 3.000000   0.000000   304.878049 0.000000  
; 0295
KWL_N_0295       710.651497 2.999503   0.000000   304.878049 0.000000  
; 0296
KWL_N_0296       706.412100 2.300000   0.000000   304.878049 0.000000  
; 0297
KWL_N_0297       705.947300 4.050000   0.000000   304.878049 0.000000  
; 0298
KWL_N_0298       708.873200 2.370000   0.000000   304.878049 0.000000  
; 0299
KWL_N_0299       669.265300 3.060000   0.000000   304.878049 0.000000  
; 0300
KWL_N_0300       665.068800 2.810000   0.000000   304.878049 0.000000  
; 0301
KWL_N_0301       668.325400 3.040000   0.000000   304.878049 0.000000  
; 0302
KWL_N_0302       660.264800 2.700000   0.000000   304.878049 0.000000  
; 0303
KWL_N_0303       659.033300 2.390000   0.000000   304.878049 0.000000  
; 0304
KWL_N_0304       659.490600 2.590000   0.000000   304.878049 0.000000  
; 0305
KWL_N_0305       658.311400 2.720000   0.000000   304.878049 0.000000  
; 0306
KWL_N_0306       659.435900 2.600000   0.000000   304.878049 0.000000  
; 0307
KWL_N_0307       660.970500 2.550000   0.000000   304.878049 0.000000  
; 0308
KWL_N_0308       661.044900 2.790000   0.000000   304.878049 0.000000  
; 0309
KWL_N_0309       661.237600 2.400000   0.000000   304.878049 0.000000  
; 0310
KWL_N_0310       661.614700 2.710000   0.000000   304.878049 0.000000  
; 0311
KWL_N_0311       661.951000 3.000000   0.000000   304.878049 0.000000  
; 0312
KWL_N_0312       661.611000 3.000000   0.000000   304.878049 0.000000  
; 0313
KWL_N_0313       660.404000 1.980000   0.000000   304.878049 0.000000  
; 0314
KWL_N_0314       657.647400 2.690000   0.000000   304.878049 0.000000  
; 0315
KWL_N_0315       656.773324 2.999676   0.000000   304.878049 0.000000  
; 0316
KWL_N_0316       657.115400 3.030000   0.000000   304.878049 0.000000  
; 0317
KWL_N_0317       656.678954 3.000046   0.000000   304.878049 0.000000  
; 0318
KWL_N_0318       665.142800 2.980000   0.000000   304.878049 0.000000  
; 0319
KWL_N_0319       657.232400 3.210000   0.000000   304.878049 0.000000  
; 0320
KWL_N_0320       661.712700 3.320000   0.000000   304.878049 0.000000  
; 0321
KWL_N_0321       700.124900 3.690000   0.000000   304.878049 0.000000  
; 0322
KWL_N_0322       672.400002 2.999998   0.000000   304.878049 0.000000  
; 0323
KWL_N_0323       670.785300 1.650000   0.000000   304.878049 0.000000  
; 0324
KWL_N_0324       672.454900 1.570000   0.000000   304.878049 0.000000  
; 0327
KWL_N_0327       661.264000 3.000000   0.000000   304.878049 0.000000  
; 0328
KWL_N_0328       658.386000 2.786300   0.000000   304.878049 0.000000  
; 0329
KWL_N_0329       690.724900 1.730000   0.000000   304.878049 0.000000  
; 0330
KWL_N_0330       697.058900 3.680000   0.000000   304.878049 0.000000  
; 0331
KWL_N_0331       691.166500 2.520000   0.000000   304.878049 0.000000  
; 0332
KWL_N_0332       694.375740 3.000260   0.000000   304.878049 0.000000  
; 0333
KWL_N_0333       692.831800 2.310000   0.000000   304.878049 0.000000  
; 0334
KWL_N_0334       679.352300 2.530000   0.000000   304.878049 0.000000  
; 0335
KWL_N_0335       677.650400 1.740000   0.000000   304.878049 0.000000  
; 0336
KWL_N_0336       667.004000 1.960000   0.000000   304.878049 0.000000  
; 0337
KWL_N_0337       658.061000 3.790000   0.000000   304.878049 0.000000  
; 0338
KWL_N_0338       660.616300 3.680000   0.000000   304.878049 0.000000  
; 0339
KWL_N_0339       666.938500 3.030000   0.000000   304.878049 0.000000  
; 0340
KWL_N_0340       665.693000 3.000000   0.000000   304.878049 0.000000  
; 0341
KWL_N_0341       663.827700 2.720000   0.000000   304.878049 0.000000  
; 0342
KWL_N_0342       687.007000 3.610000   0.000000   304.878049 0.000000  
; 0343
KWL_N_0343       649.483000 4.840000   0.000000   304.878049 0.000000  
; 0344
KWL_N_0344       649.728600 4.680000   0.000000   304.878049 0.000000  
; 0345
KWL_N_0345       649.027715 3.134285   0.000000   304.878049 0.000000  
; 0347
KWL_N_0347       648.587300 3.190000   0.000000   304.878049 0.000000  
; 0348
KWL_N_0348       648.049600 3.350000   0.000000   304.878049 0.000000  
; 0349
KWL_N_0349       648.560200 3.440000   0.000000   304.878049 0.000000  
; 0350
KWL_N_0350       647.286600 4.630000   0.000000   304.878049 0.000000  
; 0351
KWL_N_0351       646.908800 5.490000   0.000000   304.878049 0.000000  
; 0352
KWL_N_0352       646.614700 5.640000   0.000000   304.878049 0.000000  
; 0353
KWL_N_0353       646.228100 5.410000   0.000000   304.878049 0.000000  
; 0354
KWL_N_0354       648.159100 3.980000   0.000000   304.878049 0.000000  
; 0355
KWL_N_0355       654.753700 3.820000   0.000000   304.878049 0.000000  
; 0356
KWL_N_0356       657.585500 3.310000   0.000000   304.878049 0.000000  
; 0357
KWL_N_0357       657.199300 3.580000   0.000000   304.878049 0.000000  
; 0358
KWL_N_0358       655.177800 3.600000   0.000000   304.878049 0.000000  
; 0359
KWL_N_0359       659.715900 3.190000   0.000000   304.878049 0.000000  
; 0360
KWL_N_0360       660.181200 3.510000   0.000000   304.878049 0.000000  
; 0361
KWL_N_0361       663.583200 3.180000   0.000000   304.878049 0.000000  
; 0363
KWL_N_0363       662.138000 4.470300   0.000000   304.878049 0.000000  
; 0364
KWL_N_0364       661.781500 4.620000   0.000000   304.878049 0.000000  
; 0365
KWL_N_0365       652.705800 2.200000   0.000000   304.878049 0.000000  
; 0366
KWL_N_0366       649.318900 3.810000   0.000000   304.878049 0.000000  
; 0367
KWL_N_0367       649.740000 3.830000   0.000000   304.878049 0.000000  
; 0368
KWL_N_0368       651.174694 3.043306   0.000000   304.878049 0.000000  
; 0369
KWL_N_0369       653.183700 3.170000   0.000000   304.878049 0.000000  
; 0370
KWL_N_0370       652.633200 3.130000   0.000000   304.878049 0.000000  
; 0371
KWL_N_0371       652.023200 3.650000   0.000000   304.878049 0.000000  
; 0372
KWL_N_0372       650.759500 4.370000   0.000000   304.878049 0.000000  
; 0373
KWL_N_0373       652.226900 3.090000   0.000000   304.878049 0.000000  
; 0374
KWL_N_0374       652.634701 3.000299   0.000000   304.878049 0.000000  
; 0375
KWL_N_0375       654.006841 3.000159   0.000000   304.878049 0.000000  
; 0376
KWL_N_0376       650.315700 4.840000   0.000000   304.878049 0.000000  
; 0377
KWL_N_0377       650.583300 4.590000   0.000000   304.878049 0.000000  
; 0378
KWL_N_0378       652.631800 4.320000   0.000000   304.878049 0.000000  
; 0379
KWL_N_0379       652.440200 4.280000   0.000000   304.878049 0.000000  
; 0380
KWL_N_0380       652.071400 4.330000   0.000000   304.878049 0.000000  
; 0381