[TITLE]
;;Project Title/Notes

[OPTIONS]
;;Option             Value
FLOW_UNITS           LPS
INFILTRATION         HORTON
FLOW_ROUTING         DYNWAVE
LINK_OFFSETS         DEPTH
MIN_SLOPE            0
ALLOW_PONDING        YES
SKIP_STEADY_STATE    NO

IGNORE_RAINFALL      YES
IGNORE_SNOWMELT      YES
IGNORE_GROUNDWATER   YES
IGNORE_QUALITY       YES
START_DATE           02/08/2016
START_TIME           00:00:00
REPORT_START_DATE    02/09/2016
REPORT_START_TIME    00:00:00
END_DATE             02/09/2016
END_TIME             00:10:00
SWEEP_START          01/01
SWEEP_END            12/31
DRY_DAYS             5.000000
REPORT_STEP          00:01:00
WET_STEP             01:00:00
DRY_STEP             23:00:00
ROUTING_STEP         0:00:30 

INERTIAL_DAMPING     NONE
NORMAL_FLOW_LIMITED  BOTH
FORCE_MAIN_EQUATION  H-W
VARIABLE_STEP        0.75
LENGTHENING_STEP     10
MIN_SURFAREA         1.14
MAX_TRIALS           8
HEAD_TOLERANCE       0.000100
SYS_FLOW_TOL         5
LAT_FLOW_TOL         5
MINIMUM_STEP         0
THREADS              1

[EVAPORATION]
;;Data Source    Parameters
;;-------------- ----------------
CONSTANT         0.0
DRY_ONLY         NO

[JUNCTIONS]
;;Name           Elevation  MaxDepth   InitDepth  SurDepth   Aponded   
;;-------------- ---------- ---------- ---------- ---------- ----------
103577           37.050000  2          0.000000   0.000000   10        
112100           15.270000  2          0.000000   0.000000   10        
112101           16.020000  2          0.000000   0.000000   10        
112102           17.010000  2          0.000000   0.000000   10        
112103           19.390000  2          0.000000   0.000000   10        
112104           25.240000  2          0.000000   0.000000   10        
112105           15.660000  2          0.000000   0.000000   10        
112106           16.200000  2          0.000000   0.000000   10        
112107           18.400000  2          0.000000   0.000000   10        
112108           20.800000  2          0.000000   0.000000   10        
112109           28.090000  2          0.000000   0.000000   10        
112110           16.190000  2          0.000000   0.000000   10        
112111           16.690000  2          0.000000   0.000000   10        
112112           19.680000  2          0.000000   0.000000   10        
112113           20.240000  2          0.000000   0.000000   10        
112114           24.830000  2          0.000000   0.000000   10        
112115           29.030000  2          0.000000   0.000000   10        
209342           26.660000  2          0.000000   0.000000   10        
210695           23.300000  2          0.000000   0.000000   10        
210696           19.020000  2          0.000000   0.000000   10        
210697           16.870000  2          0.000000   0.000000   10        
210698           17.840000  2          0.000000   0.000000   10        
212668           17.590000  2          0.000000   0.000000   10        
212669           18.720000  2          0.000000   0.000000   10        
212670           22.780000  2          0.000000   0.000000   10        
212671           24.930000  2          0.000000   0.000000   10        
212672           19.610000  2          0.000000   0.000000   10        
212673           18.670000  2          0.000000   0.000000   10        
212674           19.110000  2          0.000000   0.000000   10        
212675           21.930000  2          0.000000   0.000000   10        
212676           24.620000  2          0.000000   0.000000   10        
222518           28.860000  2          0.000000   0.000000   10        
222519           23.640000  2          0.000000   0.000000   10        
222520           24.010000  2          0.000000   0.000000   10        
222563           29.300000  2          0.000000   0.000000   10        
224964           34.720000  2          0.000000   0.000000   10        
224965           33.330000  2          0.000000   0.000000   10        
224966           40.590000  2          0.000000   0.000000   10        
224967           37.090000  2          0.000000   0.000000   10        
224968           32.340000  2          0.000000   0.000000   10        
224969           36.560000  2          0.000000   0.000000   10        
233987           29.940000  2          0.000000   0.000000   10        
233988           31.620000  2          0.000000   0.000000   10        
233989           32.750000  2          0.000000   0.000000   10        
233990           31.860000  2          0.000000   0.000000   10        
233991           31.670000  2          0.000000   0.000000   10        
233992           31.610000  2          0.000000   0.000000   10        
233993           29.540000  2          0.000000   0.000000   10        
245212           29.250000  2          0.000000   0.000000   10        
245213           23.350000  2          0.000000   0.000000   10        
245214           23.560000  2          0.000000   0.000000   10        
245215           27.770000  2          0.000000   0.000000   10        
245216           26.350000  2          0.000000   0.000000   10        
245217           33.950000  2          0.000000   0.000000   10        
245218           33.450000  2          0.000000   0.000000   10        
245219           30.770000  2          0.000000   0.000000   10        
245220           28.750000  2          0.000000   0.000000   10        
245221           27.420000  2          0.000000   0.000000   10        
245222           27.030000  2          0.000000   0.000000   10        
245223           24.290000  2          0.000000   0.000000   10        
245224           23.750000  2          0.000000   0.000000   10        
245225           23.270000  2          0.000000   0.000000   10        
245226           21.140000  2          0.000000   0.000000   10        
245227           20.440000  2          0.000000   0.000000   10        
245228           19.150000  2          0.000000   0.000000   10        
245229           35.500000  2          0.000000   0.000000   10        
245230           34.000000  2          0.000000   0.000000   10        
245231           32.650000  2          0.000000   0.000000   10        
245232           29.690000  2          0.000000   0.000000   10        
245233           28.770000  2          0.000000   0.000000   10        
245234           26.840000  2          0.000000   0.000000   10        
245235           24.230000  2          0.000000   0.000000   10        
245236           22.140000  2          0.000000   0.000000   10        
245237           20.130000  2          0.000000   0.000000   10        
245238           17.950000  2          0.000000   0.000000   10        
245239           17.790000  2          0.000000   0.000000   10        
245240           17.650000  2          0.000000   0.000000   10        
245241           17.440000  2          0.000000   0.000000   10        
245242           17.150000  2          0.000000   0.000000   10        
245243           16.940000  2          0.000000   0.000000   10        
245244           16.780000  2          0.000000   0.000000   10        
245245           16.640000  2          0.000000   0.000000   10        
245246           16.530000  2          0.000000   0.000000   10        
245247           16.380000  2          0.000000   0.000000   10        
245248           14.890000  2          0.000000   0.000000   10        
245249           14.960000  2          0.000000   0.000000   10        
245250           14.750000  2          0.000000   0.000000   10        
245251           15.060000  2          0.000000   0.000000   10        
245252           15.250000  2          0.000000   0.000000   10        
245253           15.470000  2          0.000000   0.000000   10        
245254           15.750000  2          0.000000   0.000000   10        
245255           16.020000  2          0.000000   0.000000   10        
245256           16.230000  2          0.000000   0.000000   10        
245257           19.110000  2          0.000000   0.000000   10        
245258           19.640000  2          0.000000   0.000000   10        
245259           19.980000  2          0.000000   0.000000   10        
245260           20.340000  2          0.000000   0.000000   10        
245261           20.640000  2          0.000000   0.000000   10        
245262           20.940000  2          0.000000   0.000000   10        
245263           21.310000  2          0.000000   0.000000   10        
245264           21.860000  2          0.000000   0.000000   10        
245265           22.110000  2          0.000000   0.000000   10        
245266           22.420000  2          0.000000   0.000000   10        
245267           22.710000  2          0.000000   0.000000   10        
245268           23.020000  2          0.000000   0.000000   10        
245269           31.170000  2          0.000000   0.000000   10        
245270           26.600000  2          0.000000   0.000000   10        
245271           24.810000  2          0.000000   0.000000   10        
245272           23.290000  2          0.000000   0.000000   10        
245273           23.480000  2          0.000000   0.000000   10        
245274           23.780000  2          0.000000   0.000000   10        
259162           24.640000  2          0.000000   0.000000   10        
259163           26.970000  2          0.000000   0.000000   10        
259164           27.030000  2          0.000000   0.000000   10        
259165           32.540000  2          0.000000   0.000000   10        
259166           37.470000  2          0.000000   0.000000   10        
259167           37.500000  2          0.000000   0.000000   10        
259168           36.750000  2          0.000000   0.000000   10        
259169           35.860000  2          0.000000   0.000000   10        
259170           34.590000  2          0.000000   0.000000   10        
259171           33.830000  2          0.000000   0.000000   10        
259172           35.400000  2          0.000000   0.000000   10        
259173           27.770000  2          0.000000   0.000000   10        
259174           24.350000  2          0.000000   0.000000   10        
259175           19.020000  2          0.000000   0.000000   10        
259176           18.870000  2          0.000000   0.000000   10        
259177           18.720000  2          0.000000   0.000000   10        
259178           25.960000  2          0.000000   0.000000   10        
259179           28.060000  2          0.000000   0.000000   10        
259180           18.540000  2          0.000000   0.000000   10        
259181           18.350000  2          0.000000   0.000000   10        
259182           18.140000  2          0.000000   0.000000   10        
259183           28.840000  2          0.000000   0.000000   10        
259184           25.200000  2          0.000000   0.000000   10        
259185           23.540000  2          0.000000   0.000000   10        
272052           29.290000  2          0.000000   0.000000   10        
272053           31.770000  2          0.000000   0.000000   10        
272054           32.960000  2          0.000000   0.000000   10        
272055           34.800000  2          0.000000   0.000000   10        
272056           36.010000  2          0.000000   0.000000   10        
272057           36.580000  2          0.000000   0.000000   10        
272058           37.950000  2          0.000000   0.000000   10        
272059           34.550000  2          0.000000   0.000000   10        
272060           34.500000  2          0.000000   0.000000   10        
272061           32.600000  2          0.000000   0.000000   10        
272062           31.520000  2          0.000000   0.000000   10        
272063           28.180000  2          0.000000   0.000000   10        
272064           30.470000  2          0.000000   0.000000   10        
272065           27.080000  2          0.000000   0.000000   10        
272066           25.740000  2          0.000000   0.000000   10        
272067           25.550000  2          0.000000   0.000000   10        
272068           24.920000  2          0.000000   0.000000   10        
272069           24.260000  2          0.000000   0.000000   10        
272070           21.330000  2          0.000000   0.000000   10        
272071           21.070000  2          0.000000   0.000000   10        
272072           20.750000  2          0.000000   0.000000   10        
272073           19.930000  2          0.000000   0.000000   10        
272074           19.570000  2          0.000000   0.000000   10        
272075           19.260000  2          0.000000   0.000000   10        
272076           36.000000  2          0.000000   0.000000   10        
272834           36.520000  2          0.000000   0.000000   10        
274818           19.960000  2          0.000000   0.000000   10        
274819           22.590000  2          0.000000   0.000000   10        
274820           21.400000  2          0.000000   0.000000   10        
274821           22.760000  2          0.000000   0.000000   10        
274822           26.970000  2          0.000000   0.000000   10        
274823           27.710000  2          0.000000   0.000000   10        
274824           35.850000  2          0.000000   0.000000   10        
274825           33.700000  2          0.000000   0.000000   10        
274826           26.470000  2          0.000000   0.000000   10        
274827           24.850000  2          0.000000   0.000000   10        
274828           27.850000  2          0.000000   0.000000   10        
274829           29.050000  2          0.000000   0.000000   10        
274830           26.380000  2          0.000000   0.000000   10        
274831           26.150000  2          0.000000   0.000000   10        
274832           30.860000  2          0.000000   0.000000   10        
274833           26.000000  2          0.000000   0.000000   10        
274834           27.960000  2          0.000000   0.000000   10        
274835           25.840000  2          0.000000   0.000000   10        
274836           22.460000  2          0.000000   0.000000   10        
274837           22.260000  2          0.000000   0.000000   10        
274838           20.400000  2          0.000000   0.000000   10        
274839           19.590000  2          0.000000   0.000000   10        
274840           13.550000  2          0.000000   0.000000   10        
274841           13.790000  2          0.000000   0.000000   10        
274842           14.120000  2          0.000000   0.000000   10        
274843           14.390000  2          0.000000   0.000000   10        
274844           16.380000  2          0.000000   0.000000   10        
274845           16.680000  2          0.000000   0.000000   10        
274846           16.960000  2          0.000000   0.000000   10        
274847           17.250000  2          0.000000   0.000000   10        
274848           17.480000  2          0.000000   0.000000   10        
274849           17.850000  2          0.000000   0.000000   10        
274850           18.040000  2          0.000000   0.000000   10        
274851           18.540000  2          0.000000   0.000000   10        
274852           18.870000  2          0.000000   0.000000   10        
274853           19.350000  2          0.000000   0.000000   10        
274854           19.580000  2          0.000000   0.000000   10        
274855           19.830000  2          0.000000   0.000000   10        
274856           20.050000  2          0.000000   0.000000   10        
274857           20.560000  2          0.000000   0.000000   10        
274858           20.900000  2          0.000000   0.000000   10        
274859           21.360000  2          0.000000   0.000000   10        
274860           21.920000  2          0.000000   0.000000   10        
286005           36.530000  2          0.000000   0.000000   10        
287287           36.140000  2          0.000000   0.000000   10        
287288           35.600000  2          0.000000   0.000000   10        
287289           32.320000  2          0.000000   0.000000   10        
287290           31.950000  2          0.000000   0.000000   10        
287291           26.610000  2          0.000000   0.000000   10        
287292           34.180000  2          0.000000   0.000000   10        
287293           33.970000  2          0.000000   0.000000   10        
287294           33.690000  2          0.000000   0.000000   10        
287295           33.410000  2          0.000000   0.000000   10        
287296           29.760000  2          0.000000   0.000000   10        
287297           28.790000  2          0.000000   0.000000   10        
287298           34.460000  2          0.000000   0.000000   10        
287299           32.000000  2          0.000000   0.000000   10        
287300           39.260000  2          0.000000   0.000000   10        
287301           38.540000  2          0.000000   0.000000   10        
287302           37.150000  2          0.000000   0.000000   10        
287303           36.150000  2          0.000000   0.000000   10        
287304           33.790000  2          0.000000   0.000000   10        
287305           31.650000  2          0.000000   0.000000   10        
287306           27.350000  2          0.000000   0.000000   10        
287307           26.940000  2          0.000000   0.000000   10        
287308           26.440000  2          0.000000   0.000000   10        
287309           24.770000  2          0.000000   0.000000   10        
287310           23.780000  2          0.000000   0.000000   10        
287311           50.510000  2          0.000000   0.000000   10        
287312           49.390000  2          0.000000   0.000000   10        
287313           49.310000  2          0.000000   0.000000   10        
287314           45.540000  2          0.000000   0.000000   10        
287315           44.930000  2          0.000000   0.000000   10        
287316           42.500000  2          0.000000   0.000000   10        
287317           38.500000  2          0.000000   0.000000   10        
287318           35.250000  2          0.000000   0.000000   10        
287319           32.270000  2          0.000000   0.000000   10        
287320           29.440000  2          0.000000   0.000000   10        
287321           38.840000  2          0.000000   0.000000   10        
287322           33.490000  2          0.000000   0.000000   10        
287323           28.920000  2          0.000000   0.000000   10        
287324           28.160000  2          0.000000   0.000000   10        
287325           27.870000  2          0.000000   0.000000   10        
287326           34.610000  2          0.000000   0.000000   10        
287327           35.640000  2          0.000000   0.000000   10        
287328           43.040000  2          0.000000   0.000000   10        
287329           52.300000  2          0.000000   0.000000   10        
287330           33.640000  2          0.000000   0.000000   10        
287331           29.350000  2          0.000000   0.000000   10        
287332           33.360000  2          0.000000   0.000000   10        
287333           41.180000  2          0.000000   0.000000   10        
287334           27.570000  2          0.000000   0.000000   10        
287335           30.670000  2          0.000000   0.000000   10        
292737           25.320000  2          0.000000   0.000000   10        
292738           27.250000  2          0.000000   0.000000   10        
292739           20.920000  2          0.000000   0.000000   10        
292740           20.360000  2          0.000000   0.000000   10        
292741           21.060000  2          0.000000   0.000000   10        
292742           24.550000  2          0.000000   0.000000   10        
292743           21.400000  2          0.000000   0.000000   10        
292744           20.700000  2          0.000000   0.000000   10        
292745           21.030000  2          0.000000   0.000000   10        
292746           23.990000  2          0.000000   0.000000   10        
292747           22.770000  2          0.000000   0.000000   10        
292748           23.300000  2          0.000000   0.000000   10        
292749           25.680000  2          0.000000   0.000000   10        
292750           25.000000  2          0.000000   0.000000   10        
292751           24.620000  2          0.000000   0.000000   10        
292752           27.850000  2          0.000000   0.000000   10        
292753           26.950000  2          0.000000   0.000000   10        
292754           28.250000  2          0.000000   0.000000   10        
292755           28.790000  2          0.000000   0.000000   10        
292756           23.000000  2          0.000000   0.000000   10        
292757           28.310000  2          0.000000   0.000000   10        
292758           22.790000  2          0.000000   0.000000   10        
292759           27.020000  2          0.000000   0.000000   10        
292760           27.790000  2          0.000000   0.000000   10        
2_0              34.230000  2          0.000000   0.000000   10        
2_1              35.500000  2          0.000000   0.000000   10        
2_26             32.720000  2          0.000000   0.000000   10        
2_27             33.040000  2          0.000000   0.000000   10        
2_29             10.880000  2          0.000000   0.000000   10        
2_30             22.810000  2          0.000000   0.000000   10        
2_31             35.620000  2          0.000000   0.000000   10        
2_32             24.360000  2          0.000000   0.000000   10        
2_33             13.610000  2          0.000000   0.000000   10        
2_34             15.470000  2          0.000000   0.000000   10        
323164           22.120000  2          0.000000   0.000000   10        
323165           24.740000  2          0.000000   0.000000   10        
323166           18.710000  2          0.000000   0.000000   10        
323167           18.510000  2          0.000000   0.000000   10        
323168           18.840000  2          0.000000   0.000000   10        
323169           19.350000  2          0.000000   0.000000   10        
323170           20.760000  2          0.000000   0.000000   10        
323171           16.500000  2          0.000000   0.000000   10        
323172           17.370000  2          0.000000   0.000000   10        
323173           18.220000  2          0.000000   0.000000   10        
323174           18.940000  2          0.000000   0.000000   10        
323175           19.610000  2          0.000000   0.000000   10        
323176           21.350000  2          0.000000   0.000000   10        
323177           22.270000  2          0.000000   0.000000   10        
323178           22.490000  2          0.000000   0.000000   10        
323179           25.170000  2          0.000000   0.000000   10        
323180           20.720000  2          0.000000   0.000000   10        
323181           19.040000  2          0.000000   0.000000   10        
323182           19.630000  2          0.000000   0.000000   10        
323183           21.310000  2          0.000000   0.000000   10        
323184           21.840000  2          0.000000   0.000000   10        
323185           23.010000  2          0.000000   0.000000   10        
323186           24.030000  2          0.000000   0.000000   10        
323187           21.470000  2          0.000000   0.000000   10        
323188           22.230000  2          0.000000   0.000000   10        
323189           14.080000  2          0.000000   0.000000   10        
323190           14.540000  2          0.000000   0.000000   10        
323191           15.140000  2          0.000000   0.000000   10        
323192           15.330000  2          0.000000   0.000000   10        
323193           15.560000  2          0.000000   0.000000   10        
323194           15.880000  2          0.000000   0.000000   10        
323195           16.150000  2          0.000000   0.000000   10        
323196           17.720000  2          0.000000   0.000000   10        
323197           25.420000  2          0.000000   0.000000   10        
326542           34.120000  2          0.000000   0.000000   10        
326543           30.130000  2          0.000000   0.000000   10        
326544           33.010000  2          0.000000   0.000000   10        
329692           30.920000  2          0.000000   0.000000   10        
329693           34.520000  2          0.000000   0.000000   10        
329694           23.980000  2          0.000000   0.000000   10        
329695           25.310000  2          0.000000   0.000000   10        
329696           26.010000  2          0.000000   0.000000   10        
329697           26.840000  2          0.000000   0.000000   10        
329698           28.240000  2          0.000000   0.000000   10        
329699           30.470000  2          0.000000   0.000000   10        
329700           34.470000  2          0.000000   0.000000   10        
329701           38.330000  2          0.000000   0.000000   10        
329702           35.980000  2          0.000000   0.000000   10        
329703           43.960000  2          0.000000   0.000000   10        
329704           47.580000  2          0.000000   0.000000   10        
329705           49.920000  2          0.000000   0.000000   10        
329706           52.190000  2          0.000000   0.000000   10        
329707           53.200000  2          0.000000   0.000000   10        
329708           39.400000  2          0.000000   0.000000   10        
329709           43.450000  2          0.000000   0.000000   10        
329710           45.410000  2          0.000000   0.000000   10        
329711           48.920000  2          0.000000   0.000000   10        
329712           52.890000  2          0.000000   0.000000   10        
329713           53.840000  2          0.000000   0.000000   10        
329714           55.810000  2          0.000000   0.000000   10        
329715           60.550000  2          0.000000   0.000000   10        
329716           60.940000  2          0.000000   0.000000   10        
329717           55.780000  2          0.000000   0.000000   10        
329718           56.610000  2          0.000000   0.000000   10        
329719           58.630000  2          0.000000   0.000000   10        
329720           55.030000  2          0.000000   0.000000   10        
329721           61.420000  2          0.000000   0.000000   10        
329722           65.030000  2          0.000000   0.000000   10        
329723           62.150000  2          0.000000   0.000000   10        
329724           55.200000  2          0.000000   0.000000   10        
329725           51.800000  2          0.000000   0.000000   10        
329726           51.610000  2          0.000000   0.000000   10        
329727           50.320000  2          0.000000   0.000000   10        
329728           43.290000  2          0.000000   0.000000   10        
329729           41.130000  2          0.000000   0.000000   10        
329730           38.280000  2          0.000000   0.000000   10        
329731           36.890000  2          0.000000   0.000000   10        
329732           36.120000  2          0.000000   0.000000   10        
329733           34.280000  2          0.000000   0.000000   10        
329734           31.560000  2          0.000000   0.000000   10        
329735           30.910000  2          0.000000   0.000000   10        
329736           28.520000  2          0.000000   0.000000   10        
329737           28.200000  2          0.000000   0.000000   10        
329738           27.000000  2          0.000000   0.000000   10        
329739           24.360000  2          0.000000   0.000000   10        
329740           24.340000  2          0.000000   0.000000   10        
329741           23.760000  2          0.000000   0.000000   10        
329742           21.270000  2          0.000000   0.000000   10        
329743           45.320000  2          0.000000   0.000000   10        
330755           17.260000  2          0.000000   0.000000   10        
330833           17.430000  2          0.000000   0.000000   10        
330834           17.620000  2          0.000000   0.000000   10        
330835           21.380000  2          0.000000   0.000000   10        
330836           21.830000  2          0.000000   0.000000   10        
330837           23.710000  2          0.000000   0.000000   10        
330838           24.530000  2          0.000000   0.000000   10        
382294           22.000000  2          0.000000   0.000000   10        
382295           23.370000  2          0.000000   0.000000   10        
382296           24.690000  2          0.000000   0.000000   10        
382297           25.290000  2          0.000000   0.000000   10        
382298           25.750000  2          0.000000   0.000000   10        
382299           26.500000  2          0.000000   0.000000   10        
382300           27.320000  2          0.000000   0.000000   10        
382301           27.970000  2          0.000000   0.000000   10        
382302           29.200000  2          0.000000   0.000000   10        
382303           30.140000  2          0.000000   0.000000   10        
382304           30.640000  2          0.000000   0.000000   10        
382305           35.100000  2          0.000000   0.000000   10        
382306           34.880000  2          0.000000   0.000000   10        
382307           36.820000  2          0.000000   0.000000   10        