[OPTIONS]
;Option and Files Scenario Set: BASE
FLOW_UNITS		GPM
INFILTRATION		HORTON
FLOW_ROUTING		DYNWAVE
LINK_OFFSETS		DEPTH
MIN_SLOPE		0.000000
ALLOW_PONDING		NO
SKIP_STEADY_STATE 	NO
IGNORE_RAINFALL		NO
IGNORE_SNOWMELT		NO
IGNORE_GROUNDWATER	NO
IGNORE_QUALITY		NO

START_DATE		01/01/2002
START_TIME		00:00:00
REPORT_START_DATE	01/01/2002
REPORT_START_TIME	00:00
END_DATE		01/01/2002
END_TIME		24:00:00
SWEEP_START		01/01
SWEEP_END		12/31
DRY_DAYS		5.000000
REPORT_STEP		00:05:00
WET_STEP		01:00:00
DRY_STEP		23:00:00
ROUTING_STEP		300

INERTIAL_DAMPING	NONE
NORMAL_FLOW_LIMITED	BOTH
FORCE_MAIN_EQUATION	H-W
VARIABLE_STEP		0.750000
LENGTHENING_STEP	0
MIN_SURFAREA		0.000000
MINIMUM_STEP		0.5


[FILES]

[RAINGAGES]

[HYDROGRAPHS]

[TEMPERATURE]

[ADJUSTMENTS]

[SUBCATCHMENTS]

[SUBAREAS]

[INFILTRATION]

[AQUIFERS]

[GROUNDWATER]

[GWF]

[SNOWPACKS]

[JUNCTIONS]
033MH014	6216.500000	13.500000	0.000000	0.000000	0.000000
046MH001	6260.000000	8.000000	0.000000	0.000000	0.000000
046MH002	6254.000000	2.000000	0.000000	0.000000	0.000000
046MH003	6248.000000	2.000000	0.000000	0.000000	0.000000
046MH004	6230.000000	5.000000	0.000000	0.000000	0.000000
046MH005	6190.000000	10.000000	0.000000	0.000000	0.000000
046MH006	6180.000000	9.000000	0.000000	0.000000	0.000000
046MH007	6170.000000	8.000000	0.000000	0.000000	0.000000
046MH008	6160.000000	10.000000	0.000000	0.000000	0.000000
046MH009	6155.000000	13.000000	0.000000	0.000000	0.000000
046MH010	6150.000000	17.000000	0.000000	0.000000	0.000000
046MH011	6150.000000	15.000000	0.000000	0.000000	0.000000
047MH012	6228.440000	11.560000	0.000000	0.000000	0.000000
047MH013	6227.740000	14.260000	0.000000	0.000000	0.000000
047MH014	6226.000000	15.000000	0.000000	0.000000	0.000000
047MH015	6224.400000	15.600000	0.000000	0.000000	0.000000
047MH016	6217.800000	18.200000	0.000000	0.000000	0.000000
047MH017	6216.400000	15.600000	0.000000	0.000000	0.000000
047MH018	6214.000000	14.000000	0.000000	0.000000	0.000000
047MH019	6212.000000	13.000000	0.000000	0.000000	0.000000
047MH020	6201.350000	18.650000	0.000000	0.000000	0.000000
047MH021	6192.390000	13.610000	0.000000	0.000000	0.000000
047MH022	6190.900000	14.100000	0.000000	0.000000	0.000000
047MH023	6178.200000	24.800000	0.000000	0.000000	0.000000
047MH024	6177.540000	21.460000	0.000000	0.000000	0.000000
047MH025	6176.860000	15.140000	0.000000	0.000000	0.000000
047MH026	6176.500000	11.500000	0.000000	0.000000	0.000000
047MH027	6173.830000	13.170000	0.000000	0.000000	0.000000
047MH028	6173.130000	12.870000	0.000000	0.000000	0.000000
047MH029	6172.450000	13.550000	0.000000	0.000000	0.000000
047MH030	6169.740000	12.260000	0.000000	0.000000	0.000000
047MH031	6167.600000	10.400000	0.000000	0.000000	0.000000
047MH032	6162.950000	11.050000	0.000000	0.000000	0.000000
047MH033	6157.520000	10.480000	0.000000	0.000000	0.000000
047MH034	6148.630000	14.370000	0.000000	0.000000	0.000000
047MH035	6146.020000	13.980000	0.000000	0.000000	0.000000
047MH036	6143.310000	14.690000	0.000000	0.000000	0.000000
047MH037	6142.750000	15.250000	0.000000	0.000000	0.000000
047MH038	6141.400000	14.600000	0.000000	0.000000	0.000000
047MH039	6139.780000	18.220000	0.000000	0.000000	0.000000
047MH040	6137.200000	14.800000	0.000000	0.000000	0.000000
047MH081	6215.750000	18.250000	0.000000	0.000000	0.000000
047MH082	6215.650000	20.350000	0.000000	0.000000	0.000000
047MH086	6214.900000	22.100000	0.000000	0.000000	0.000000
047MH087	6214.000000	24.000000	0.000000	0.000000	0.000000
047MH089	6212.350000	23.650000	0.000000	0.000000	0.000000
047MH090	6211.860000	23.140000	0.000000	0.000000	0.000000
047MH091	6211.360000	22.640000	0.000000	0.000000	0.000000
047MH092	6210.880000	21.120000	0.000000	0.000000	0.000000
047MH093	6210.150000	19.850000	0.000000	0.000000	0.000000
047MH094	6205.700000	24.300000	0.000000	0.000000	0.000000
047MH095	6205.320000	23.680000	0.000000	0.000000	0.000000
047MH097	6205.200000	23.800000	0.000000	0.000000	0.000000
047MH100	6204.140000	17.860000	0.000000	0.000000	0.000000
047MH101	6202.630000	14.370000	0.000000	0.000000	0.000000
047MH176	6176.510000	13.490000	0.000000	0.000000	0.000000
047MH216	6171.070000	23.930000	0.000000	0.000000	0.000000
047MH217	6159.120000	25.880000	0.000000	0.000000	0.000000
047MH219	6154.960000	22.040000	0.000000	0.000000	0.000000
047MH221	6148.500000	21.500000	0.000000	0.000000	0.000000
047MH223	6142.950000	21.050000	0.000000	0.000000	0.000000
047MH225	6137.950000	20.050000	0.000000	0.000000	0.000000
047MH230	6134.880000	18.120000	0.000000	0.000000	0.000000
047MH233	6131.800000	19.200000	0.000000	0.000000	0.000000
047MH285	6227.800000	12.200000	0.000000	0.000000	0.000000
047MH286	6226.200000	12.800000	0.000000	0.000000	0.000000
047MH288	6223.510000	10.490000	0.000000	0.000000	0.000000
047MH289	6222.320000	13.680000	0.000000	0.000000	0.000000
047MH290	6221.280000	13.720000	0.000000	0.000000	0.000000
047MH291	6220.250000	13.750000	0.000000	0.000000	0.000000
047MH292	6219.310000	14.690000	0.000000	0.000000	0.000000
047MH293	6218.400000	15.600000	0.000000	0.000000	0.000000
047MH294	6217.270000	16.730000	0.000000	0.000000	0.000000
047MH295	6216.340000	24.660000	0.000000	0.000000	0.000000
047MH296	6215.200000	22.800000	0.000000	0.000000	0.000000
047MH297	6214.400000	23.600000	0.000000	0.000000	0.000000
047MH309	6213.240000	22.760000	0.000000	0.000000	0.000000
047MH310	6213.790000	22.210000	0.000000	0.000000	0.000000
047MH311	6212.380000	11.620000	0.000000	0.000000	0.000000
047MH312	6211.760000	16.240000	0.000000	0.000000	0.000000
047MH313	6191.000000	14.000000	0.000000	0.000000	0.000000
047MH314	6171.800000	13.200000	0.000000	0.000000	0.000000
047MH315	6171.000000	13.000000	0.000000	0.000000	0.000000
047MH316	6168.000000	13.000000	0.000000	0.000000	0.000000
047MH317	6156.900000	13.100000	0.000000	0.000000	0.000000
047MH318	6149.900000	14.100000	0.000000	0.000000	0.000000
047MH319	6146.400000	13.600000	0.000000	0.000000	0.000000
047MH320	6143.000000	15.000000	0.000000	0.000000	0.000000
047MH321	6140.080000	17.920000	0.000000	0.000000	0.000000
047MH322	6138.730000	19.270000	0.000000	0.000000	0.000000
047MH332	6163.020000	11.980000	0.000000	0.000000	0.000000
047MH333	6163.440000	12.560000	0.000000	0.000000	0.000000
047MH334	6160.920000	14.080000	0.000000	0.000000	0.000000
047MH336	6154.810000	8.190000	0.000000	0.000000	0.000000
047MH338	6222.890000	9.110000	0.000000	0.000000	0.000000
047MH339	6221.640000	8.360000	0.000000	0.000000	0.000000
047MH340	6221.010000	9.990000	0.000000	0.000000	0.000000
047MH341	6220.260000	11.740000	0.000000	0.000000	0.000000
047MH342	6219.180000	12.820000	0.000000	0.000000	0.000000
047MH343	6218.230000	15.770000	0.000000	0.000000	0.000000
047MH362	6165.000000	28.000000	0.000000	0.000000	0.000000
047MH378	6140.520000	15.480000	0.000000	0.000000	0.000000
047MH381	6137.930000	19.070000	0.000000	0.000000	0.000000
048MH002	6239.000000	14.000000	0.000000	0.000000	0.000000
048MH003	6240.830000	15.170000	0.000000	0.000000	0.000000
048MH004	6229.300000	28.700000	0.000000	0.000000	0.000000
048MH005	6227.480000	20.520000	0.000000	0.000000	0.000000
048MH006	6225.000000	16.000000	0.000000	0.000000	0.000000
048MH008	6219.600000	12.400000	0.000000	0.000000	0.000000
048MH009	6220.990000	15.010000	0.000000	0.000000	0.000000
048MH010	6216.890000	15.110000	0.000000	0.000000	0.000000
048MH011	6215.990000	14.010000	0.000000	0.000000	0.000000
048MH012	6215.330000	13.670000	0.000000	0.000000	0.000000
048MH013	6214.790000	13.210000	0.000000	0.000000	0.000000
048MH014	6214.400000	12.600000	0.000000	0.000000	0.000000
048MH015	6214.040000	12.960000	0.000000	0.000000	0.000000
048MH016	6212.900000	16.100000	0.000000	0.000000	0.000000
048MH017	6211.700000	22.300000	0.000000	0.000000	0.000000
048MH018	6210.460000	17.540000	0.000000	0.000000	0.000000
048MH019	6209.300000	24.700000	0.000000	0.000000	0.000000
048MH020	6207.790000	20.210000	0.000000	0.000000	0.000000
048MH021	6186.750000	24.250000	0.000000	0.000000	0.000000
048MH023	6179.500000	14.500000	0.000000	0.000000	0.000000
048MH024	6162.770000	14.230000	0.000000	0.000000	0.000000
048MH025	6146.500000	15.500000	0.000000	0.000000	0.000000
048MH029	6202.650000	13.350000	0.000000	0.000000	0.000000
048MH030	6204.070000	12.930000	0.000000	0.000000	0.000000
048MH031	6205.370000	16.630000	0.000000	0.000000	0.000000
048MH044	6148.500000	18.500000	0.000000	0.000000	0.000000
048MH048	6194.000000	29.000000	0.000000	0.000000	0.000000
048MH049	6220.850000	15.150000	0.000000	0.000000	0.000000
048MH050	6227.830000	14.170000	0.000000	0.000000	0.000000
048MH051	6231.000000	13.000000	0.000000	0.000000	0.000000
048MH052	6234.110000	11.890000	0.000000	0.000000	0.000000
048MH053	6234.880000	16.120000	0.000000	0.000000	0.000000
048MH054	6235.500000	20.500000	0.000000	0.000000	0.000000
048MH055	6236.640000	19.360000	0.000000	0.000000	0.000000
048MH056	6237.810000	17.190000	0.000000	0.000000	0.000000
048MH062	6236.900000	18.100000	0.000000	0.000000	0.000000
048MH063	6235.040000	16.960000	0.000000	0.000000	0.000000
048MH064	6234.930000	15.070000	0.000000	0.000000	0.000000
048MH065	6227.200000	12.800000	0.000000	0.000000	0.000000
048MH066	6224.900000	14.100000	0.000000	0.000000	0.000000
048MH067	6223.900000	14.100000	0.000000	0.000000	0.000000
048MH071	6247.380000	4.620000	0.000000	0.000000	0.000000
048MH072	6245.880000	16.120000	0.000000	0.000000	0.000000
048MH073	6244.960000	17.040000	0.000000	0.000000	0.000000
048MH078	6242.860000	20.140000	0.000000	0.000000	0.000000
048MH082	6241.390000	16.610000	0.000000	0.000000	0.000000
048MH083	6232.810000	15.190000	0.000000	0.000000	0.000000
048MH084	6228.030000	15.970000	0.000000	0.000000	0.000000
048MH085	6226.700000	16.300000	0.000000	0.000000	0.000000
048MH086	6225.640000	16.360000	0.000000	0.000000	0.000000
048MH087	6224.670000	15.330000	0.000000	0.000000	0.000000
048MH088	6223.520000	15.480000	0.000000	0.000000	0.000000
048MH090	6221.970000	14.030000	0.000000	0.000000	0.000000
048MH091	6221.070000	12.930000	0.000000	0.000000	0.000000
048MH092	6219.830000	14.170000	0.000000	0.000000	0.000000
048MH093	6206.200000	12.800000	0.000000	0.000000	0.000000
048MH180	6168.450000	16.550000	0.000000	0.000000	0.000000
048MH181	6167.760000	14.240000	0.000000	0.000000	0.000000
048MH182	6167.760000	10.240000	0.000000	0.000000	0.000000
048MH183	6167.090000	6.910000	0.000000	0.000000	0.000000
048MH184	6166.820000	6.180000	0.000000	0.000000	0.000000
048MH186	6165.180000	7.820000	0.000000	0.000000	0.000000
048MH187	6164.390000	12.610000	0.000000	0.000000	0.000000
048MH193	6139.790000	14.210000	0.000000	0.000000	0.000000
048MH200	6238.990000	14.010000	0.000000	0.000000	0.000000
048MH203	6166.350000	7.650000	0.000000	0.000000	0.000000
048MH205	6219.020000	14.980000	0.000000	0.000000	0.000000
048MH227	6201.590000	12.410000	0.000000	0.000000	0.000000
048MH228	6200.200000	11.800000	0.000000	0.000000	0.000000
048MH229	6198.070000	9.930000	0.000000	0.000000	0.000000
048MH230	6195.310000	9.690000	0.000000	0.000000	0.000000
048MH231	6192.480000	8.520000	0.000000	0.000000	0.000000
048MH232	6189.150000	7.850000	0.000000	0.000000	0.000000
048MH233	6187.460000	7.540000	0.000000	0.000000	0.000000
048MH263	6186.880000	9.120000	0.000000	0.000000	0.000000
048MH264	6186.020000	11.980000	0.000000	0.000000	0.000000
048MH265	6185.090000	16.910000	0.000000	0.000000	0.000000
048MH267	6184.520000	19.480000	0.000000	0.000000	0.000000
048MH268	6180.660000	16.340000	0.000000	0.000000	0.000000
048MH269	6177.140000	12.860000	0.000000	0.000000	0.000000
048MH270	6172.090000	7.910000	0.000000	0.000000	0.000000
048MH273	6187.250000	4.750000	0.000000	0.000000	0.000000
048MH274	6187.760000	4.240000	0.000000	0.000000	0.000000
048MH275	6188.300000	4.700000	0.000000	0.000000	0.000000
048MH276	6189.360000	6.640000	0.000000	0.000000	0.000000
048MH277	6194.410000	10.590000	0.000000	0.000000	0.000000
048MH279	6199.870000	15.130000	0.000000	0.000000	0.000000
048MH281	6202.880000	19.120000	0.000000	0.000000	0.000000
048MH282	6193.860000	13.140000	0.000000	0.000000	0.000000
048MH283	6204.090000	17.910000	0.000000	0.000000	0.000000
048MH287	6204.560000	17.440000	0.000000	0.000000	0.000000
048MH288	6204.990000	15.010000	0.000000	0.000000	0.000000
048MH289	6205.700000	14.300000	0.000000	0.000000	0.000000
048MH290	6206.230000	11.770000	0.000000	0.000000	0.000000
048MH291	6206.720000	11.280000	0.000000	0.000000	0.000000
048MH292	6207.450000	10.550000	0.000000	0.000000	0.000000
048MH293	6207.670000	8.330000	0.000000	0.000000	0.000000
048MH294	6199.220000	18.780000	0.000000	0.000000	0.000000
048MH295	6199.820000	18.180000	0.000000	0.000000	0.000000
048MH296	6200.600000	17.400000	0.000000	0.000000	0.000000
048MH297	6201.490000	18.510000	0.000000	0.000000	0.000000
048MH298	6204.110000	18.890000	0.000000	0.000000	0.000000
048MH299	6204.540000	19.460000	0.000000	0.000000	0.000000
048MH300	6205.120000	16.880000	0.000000	0.000000	0.000000
048MH311	6205.250000	13.750000	0.000000	0.000000	0.000000
048MH312	6204.630000	13.370000	0.000000	0.000000	0.000000
048MH313	6203.790000	12.210000	0.000000	0.000000	0.000000
048MH314	6203.170000	12.830000	0.000000	0.000000	0.000000
048MH316	6200.508000	11.492000	0.000000	0.000000	0.000000
048MH317	6199.480000	18.520000	0.000000	0.000000	0.000000
048MH318	6197.380000	15.620000	0.000000	0.000000	0.000000
048MH319	6206.810000	11.190000	0.000000	0.000000	0.000000
048MH320	6207.400000	12.600000	0.000000	0.000000	0.000000
048MH321	6206.710000	13.290000	0.000000	0.000000	0.000000
048MH329	6202.460000	11.540000	0.000000	0.000000	0.000000
048MH330	6202.960000	19.040000	0.000000	0.000000	0.000000
048MH332	6192.790000	13.210000	0.000000	0.000000	0.000000
048MH333	6190.400000	12.600000	0.000000	0.000000	0.000000
048MH336	6208.730000	14.270000	0.000000	0.000000	0.000000
048MH337	6209.080000	14.920000	0.000000	0.000000	0.000000
048MH338	6209.590000	14.410000	0.000000	0.000000	0.000000
048MH339	6211.940000	17.060000	0.000000	0.000000	0.000000
048MH340	6212.380000	17.620000	0.000000	0.000000	0.000000
048MH341	6212.760000	19.240000	0.000000	0.000000	0.000000
048MH343	6213.210000	17.790000	0.000000	0.000000	0.000000
048MH344	6213.670000	16.330000	0.000000	0.000000	0.000000
048MH345	6214.260000	11.740000	0.000000	0.000000	0.000000
048MH346	6210.770000	14.230000	0.000000	0.000000	0.000000
048MH347	6204.810000	14.190000	0.000000	0.000000	0.000000
048MH348	6200.010000	11.990000	0.000000	0.000000	0.000000
048MH349	6199.200000	12.800000	0.000000	0.000000	0.000000
048MH351	6194.670000	16.330000	0.000000	0.000000	0.000000
048MH352	6190.230000	22.770000	0.000000	0.000000	0.000000
048MH356	6185.510000	20.490000	0.000000	0.000000	0.000000
048MH357	6183.130000	23.870000	0.000000	0.000000	0.000000
048MH358	6180.400000	12.600000	0.000000	0.000000	0.000000
048MH359	6176.590000	8.410000	0.000000	0.000000	0.000000
048MH360	6184.240000	12.760000	0.000000	0.000000	0.000000
048MH361	6187.350000	12.650000	0.000000	0.000000	0.000000
048MH362	6194.810000	12.190000	0.000000	0.000000	0.000000
048MH363	6201.970000	13.030000	0.000000	0.000000	0.000000
048MH364	6173.390000	6.610000	0.000000	0.000000	0.000000
048MH365	6171.730000	7.270000	0.000000	0.000000	0.000000
048MH366	6169.950000	6.050000	0.000000	0.000000	0.000000
048MH367	6168.080000	18.920000	0.000000	0.000000	0.000000
048MH368	6166.510000	16.490000	0.000000	0.000000	0.000000
048MH369	6165.580000	10.420000	0.000000	0.000000	0.000000
048MH372	6164.560000	9.440000	0.000000	0.000000	0.000000
048MH373	6160.190000	6.810000	0.000000	0.000000	0.000000
048MH376	6212.500000	17.500000	0.000000	0.000000	0.000000
048MH377	6227.270000	12.730000	0.000000	0.000000	0.000000
048MH392	6204.230000	13.770000	0.000000	0.000000	0.000000
048MH393	6203.750000	18.250000	0.000000	0.000000	0.000000
048MH394	6204.130000	23.870000	0.000000	0.000000	0.000000
048MH395	6205.000000	28.000000	0.000000	0.000000	0.000000
048MH396	6226.190000	11.810000	0.000000	0.000000	0.000000
048MH397	6200.000000	19.000000	0.000000	0.000000	0.000000
048MH398	6201.100000	20.900000	0.000000	0.000000	0.000000
048MH399	6204.000000	12.000000	0.000000	0.000000	0.000000
048MH400	6206.190000	20.810000	0.000000	0.000000	0.000000
048MH401	6224.230000	29.770000	0.000000	0.000000	0.000000
; LIFT_STATION
049LS900	6161.370000	7.630000	0.000000	1000.000000	0.000000
; LIFT_STATION
049LS901	6207.930000	0.000000	0.000000	1000.000000	0.000000
049MH001	6146.140000	10.860000	0.000000	0.000000	0.000000
049MH002	6157.880000	10.120000	0.000000	0.000000	0.000000
049MH003	6161.300000	18.700000	0.000000	0.000000	0.000000
; MH
049MH004	6165.020000	10.980000	0.000000	1000.000000	0.000000
049MH005	6158.000000	13.000000	0.000000	0.000000	0.000000
049MH006	6162.060000	10.940000	0.000000	0.000000	0.000000
049MH007	6163.710000	12.290000	0.000000	0.000000	0.000000
049MH008	6166.480000	15.520000	0.000000	0.000000	0.000000
049MH009	6169.320000	9.680000	0.000000	0.000000	0.000000
; MH
049MH012	6161.370000	6.630000	0.000000	1000.000000	0.000000
049MH013	6180.200000	11.800000	0.000000	0.000000	0.000000
049MH014	6174.880000	11.120000	0.000000	0.000000	0.000000
049MH015	6170.680000	12.320000	0.000000	0.000000	0.000000
049MH016	6166.150000	12.850000	0.000000	0.000000	0.000000
049MH017	6162.390000	12.610000	0.000000	0.000000	0.000000
049MH018	6157.280000	12.720000	0.000000	0.000000	0.000000
049MH019	6151.270000	13.730000	0.000000	0.000000	0.000000
049MH020	6146.760000	15.240000	0.000000	0.000000	0.000000
049MH021	6145.450000	12.550000	0.000000	0.000000	0.000000
049MH022	6143.840000	11.160000	0.000000	0.000000	0.000000
049MH023	6143.360000	10.640000	0.000000	0.000000	0.000000
049MH024	6157.170000	7.830000	0.000000	0.000000	0.000000
049MH026	6154.500000	9.500000	0.000000	0.000000	0.000000
049MH027	6151.740000	11.260000	0.000000	0.000000	0.000000
049MH028	6147.490000	13.510000	0.000000	0.000000	0.000000
049MH029	6145.480000	12.520000	0.000000	0.000000	0.000000
049MH030	6148.270000	20.730000	0.000000	0.000000	0.000000
049MH037	6149.210000	9.790000	0.000000	0.000000	0.000000
049MH038	6144.420000	9.580000	0.000000	0.000000	0.000000
049MH039	6134.440000	12.560000	0.000000	0.000000	0.000000
049MH045	6149.110000	15.890000	0.000000	0.000000	0.000000
049MH046	6149.820000	13.180000	0.000000	0.000000	0.000000
049MH047	6151.380000	8.620000	0.000000	0.000000	0.000000
049MH048	6153.390000	3.610000	0.000000	0.000000	0.000000
049MH049	6153.390000	6.610000	0.000000	0.000000	0.000000
049MH050	6155.000000	5.000000	0.000000	0.000000	0.000000
049MH051	6155.000000	10.000000	0.000000	0.000000	0.000000
049MH052	6156.390000	4.610000	0.000000	0.000000	0.000000
049MH053	6157.840000	4.160000	0.000000	0.000000	0.000000
049MH054	6157.840000	4.160000	0.000000	0.000000	0.000000
049MH055	6158.920000	3.080000	0.000000	0.000000	0.000000
049MH056	6159.630000	7.370000	0.000000	0.000000	0.000000
049MH057	6159.850000	12.150000	0.000000	0.000000	0.000000
049MH058	6161.860000	24.140000	0.000000	0.000000	0.000000
049MH059	6162.530000	26.470000	0.000000	0.000000	0.000000
049MH060	6184.030000	26.970000	0.000000	0.000000	0.000000
049MH061	6199.240000	12.760000	0.000000	0.000000	0.000000
049MH062	6203.620000	8.380000	0.000000	0.000000	0.000000
049MH064	6209.000000	5.000000	0.000000	0.000000	0.000000
049MH065	6186.000000	21.000000	0.000000	0.000000	0.000000
049MH066	6210.000000	5.000000	0.000000	0.000000	0.000000
049MH067	6211.000000	4.000000	0.000000	0.000000	0.000000
049MH068	6200.000000	14.000000	0.000000	0.000000	0.000000
049MH069	6184.000000	13.000000	0.000000	0.000000	0.000000
049MH070	6195.000000	7.000000	0.000000	0.000000	0.000000
049MH071	6190.000000	8.000000	0.000000	0.000000	0.000000
049MH072	6182.000000	11.000000	0.000000	0.000000	0.000000
049MH073	6180.000000	7.000000	0.000000	0.000000	0.000000
049MH074	6185.000000	18.000000	0.000000	0.000000	0.000000
049MH075	6152.820000	37.180000	0.000000	0.000000	0.000000
049MH076	6170.000000	16.000000	0.000000	0.000000	0.000000
049MH077	6153.170000	28.830000	0.000000	0.000000	0.000000
049MH078	6149.720000	17.280000	0.000000	0.000000	0.000000
049MH079	6151.270000	27.730000	0.000000	0.000000	0.000000
049MH092	6207.820000	2.180000	0.000000	0.000000	0.000000
; LIFT_STATION
050LS900	6080.000000	19.000000	0.000000	1000.000000	0.000000
050MH003	6080.930000	21.070000	0.000000	0.000000	0.000000
050MH004	6081.560000	22.440000	0.000000	0.000000	0.000000
050MH005	6082.580000	17.420000	0.000000	0.000000	0.000000
050MH006	6083.270000	14.730000	0.000000	0.000000	0.000000
050MH007	6084.560000	14.440000	0.000000	0.000000	0.000000
050MH008	6085.330000	18.670000	0.000000	0.000000	0.000000
050MH009	6104.000000	8.000000	0.000000	0.000000	0.000000
060MH001	6149.370000	10.630000	0.000000	0.000000	0.000000
060MH002	6150.000000	12.000000	0.000000	0.000000	0.000000
061LH413	6140.000000	49.000000	0.000000	0.000000	0.000000
061LH414	6171.000000	18.000000	0.000000	0.000000	0.000000
061MH001	6138.210000	15.790000	0.000000	0.000000	0.000000
061MH002	6135.280000	23.720000	0.000000	0.000000	0.000000
061MH003	6133.110000	22.890000	0.000000	0.000000	0.000000
061MH004	6131.330000	16.670000	0.000000	0.000000	0.000000
061MH005	6129.760000	18.240000	0.000000	0.000000	0.000000
061MH006	6128.500000	16.500000	0.000000	0.000000	0.000000
061MH008	6127.000000	15.000000	0.000000	0.000000	0.000000
061MH009	6125.590000	18.410000	0.000000	0.000000	0.000000
061MH010	6125.150000	19.850000	0.000000	0.000000	0.000000
061MH011	6123.920000	15.080000	0.000000	0.000000	0.000000
061MH012	6121.010000	12.990000	0.000000	0.000000	0.000000
061MH013	6118.630000	15.370000	0.000000	0.000000	0.000000
061MH014	6116.240000	15.760000	0.000000	0.000000	0.000000
061MH018	6114.140000	14.860000	0.000000	0.000000	0.000000
061MH019	6112.050000	20.950000	0.000000	0.000000	0.000000
061MH020	6109.660000	16.340000	0.000000	0.000000	0.000000
061MH021	6107.270000	16.730000	0.000000	0.000000	0.000000
061MH022	6105.010000	20.990000	0.000000	0.000000	0.000000
061MH023	6103.460000	25.540000	0.000000	0.000000	0.000000
061MH026	6103.600000	22.400000	0.000000	0.000000	0.000000
061MH027	6105.840000	17.160000	0.000000	0.000000	0.000000
061MH028	6106.380000	19.620000	0.000000	0.000000	0.000000
061MH029	6108.210000	17.790000	0.000000	0.000000	0.000000
061MH030	6109.660000	17.340000	0.000000	0.000000	0.000000
061MH031	6110.000000	22.000000	0.000000	0.000000	0.000000
061MH032	6112.620000	16.380000	0.000000	0.000000	0.000000
061MH034	6118.120000	15.880000	0.000000	0.000000	0.000000
061MH035	6119.900000	14.100000	0.000000	0.000000	0.000000
061MH036	6123.690000	14.310000	0.000000	0.000000	0.000000
061MH037	6126.000000	24.000000	0.000000	0.000000	0.000000
061MH038	6131.400000	16.600000	0.000000	0.000000	0.000000
061MH039	6125.000000	20.000000	0.000000	0.000000	0.000000
061MH042	6177.860000	11.140000	0.000000	0.000000	0.000000
061MH043	6174.260000	14.740000	0.000000	0.000000	0.000000
061MH044	6172.750000	15.250000	0.000000	0.000000	0.000000
061MH045	6172.390000	13.610000	0.000000	0.000000	0.000000
061MH046	6171.180000	14.820000	0.000000	0.000000	0.000000
061MH047	6170.690000	12.310000	0.000000	0.000000	0.000000
061MH048	6169.520000	12.480000	0.000000	0.000000	0.000000
061MH049	6165.000000	14.000000	0.000000	0.000000	0.000000
061MH050	6153.380000	14.620000	0.000000	0.000000	0.000000
061MH051	6151.550000	13.450000	0.000000	0.000000	0.000000
061MH052	6148.160000	15.840000	0.000000	0.000000	0.000000
061MH053	6170.000000	18.000000	0.000000	0.000000	0.000000
061MH055	6139.000000	47.000000	0.000000	0.000000	0.000000
061MH056	6137.000000	31.000000	0.000000	0.000000	0.000000
061MH057	6140.000000	20.000000	0.000000	0.000000	0.000000
061MH058	6139.000000	12.000000	0.000000	0.000000	0.000000
061MH059	6137.500000	14.500000	0.000000	0.000000	0.000000
061MH060	6135.000000	15.000000	0.000000	0.000000	0.000000
061MH068	6163.140000	9.860000	0.000000	0.000000	0.000000
061MH070	6161.020000	9.980000	0.000000	0.000000	0.000000
061MH071	6159.670000	10.330000	0.000000	0.000000	0.000000
061MH072	6158.440000	11.560000	0.000000	0.000000	0.000000
061MH073	6156.870000	8.130000	0.000000	0.000000	0.000000
061MH074	6155.520000	11.480000	0.000000	0.000000	0.000000
061MH076	6155.230000	10.770000	0.000000	0.000000	0.000000
061MH077	6155.120000	10.880000	0.000000	0.000000	0.000000
061MH078	6154.930000	12.070000	0.000000	0.000000	0.000000
061MH087	6162.000000	22.000000	0.000000	0.000000	0.000000
061MH088	6160.380000	17.620000	0.000000	0.000000	0.000000
061MH089	6158.280000	9.720000	0.000000	0.000000	0.000000
061MH090	6147.720000	4.280000	0.000000	0.000000	0.000000
061MH130	6137.500000	17.500000	0.000000	0.000000	0.000000
061MH131	6137.150000	15.850000	0.000000	0.000000	0.000000
061MH132	6136.800000	15.200000	0.000000	0.000000	0.000000
061MH133	6134.090000	16.910000	0.000000	0.000000	0.000000
061MH134	6131.300000	16.700000	0.000000	0.000000	0.000000
061MH135	6123.880000	14.120000	0.000000	0.000000	0.000000
061MH136	6115.830000	15.170000	0.000000	0.000000	0.000000
061MH137	6112.640000	14.360000	0.000000	0.000000	0.000000
061MH180	6142.240000	13.760000	0.000000	0.000000	0.000000
061MH191	6144.100000	11.900000	0.000000	0.000000	0.000000
061MH195	6111.000000	17.000000	0.000000	0.000000	0.000000
061MH196	6113.000000	15.000000	0.000000	0.000000	0.000000
061MH197	6163.640000	10.360000	0.000000	0.000000	0.000000
061MH203	6115.530000	16.470000	0.000000	0.000000	0.000000
061MH207	6169.220000	6.780000	0.000000	0.000000	0.000000
061MH212	6168.220000	6.780000	0.000000	0.000000	0.000000
062MH021	6100.350000	10.650000	0.000000	0.000000	0.000000
062MH022	6102.000000	8.000000	0.000000	0.000000	0.000000
062MH023	6100.490000	12.510000	0.000000	0.000000	0.000000
062MH024	6098.940000	12.060000	0.000000	0.000000	0.000000
062MH025	6097.700000	12.300000	0.000000	0.000000	0.000000
062MH050	6139.300000	14.700000	0.000000	0.000000	0.000000
062MH052	6128.000000	14.000000	0.000000	0.000000	0.000000
062MH055	6122.020000	13.980000	0.000000	0.000000	0.000000
062MH056	6121.500000	14.500000	0.000000	0.000000	0.000000
062MH057	6116.050000	14.950000	0.000000	0.000000	0.000000
062MH058	6110.800000	15.200000	0.000000	0.000000	0.000000
062MH078	6095.850000	14.150000	0.000000	0.000000	0.000000
062MH079	6097.520000	13.480000	0.000000	0.000000	0.000000
062MH080	6094.500000	22.500000	0.000000	0.000000	0.000000
062MH081	6096.530000	19.470000	0.000000	0.000000	0.000000
062MH131	6088.370000	12.630000	0.000000	0.000000	0.000000
062MH132	6091.400000	15.600000	0.000000	0.000000	0.000000
062MH133	6093.000000	15.000000	0.000000	0.000000	0.000000
062MH141	6107.000000	13.000000	0.000000	0.000000	0.000000
062MH142	6103.000000	13.000000	0.000000	0.000000	0.000000
062MH143	6101.790000	14.210000	0.000000	0.000000	0.000000
062MH145	6101.160000	12.840000	0.000000	0.000000	0.000000
062MH146	6101.000000	9.000000	0.000000	0.000000	0.000000
062MH147	6093.000000	13.000000	0.000000	0.000000	0.000000
062MH148	6090.500000	10.500000	0.000000	0.000000	0.000000
062MH149	6088.660000	14.340000	0.000000	0.000000	0.000000
062MH150	6086.330000	17.670000	0.000000	0.000000	0.000000
062MH161	6082.960000	17.040000	0.000000	0.000000	0.000000
062MH162	6086.000000	14.000000	0.000000	0.000000	0.000000
062MH163	6086.400000	15.600000	0.000000	0.000000	0.000000
062MH164	6083.870000	18.130000	0.000000	0.000000	0.000000
062MH165	6090.000000	14.000000	0.000000	0.000000	0.000000
062MH166	6087.000000	14.000000	0.000000	0.000000	0.000000
062MH167	6092.000000	16.000000	0.000000	0.000000	0.000000
062MH168	6096.900000	17.100000	0.000000	0.000000	0.000000
062MH169	6099.970000	16.030000	0.000000	0.000000	0.000000
062MH170	6103.000000	15.000000	0.000000	0.000000	0.000000
062MH171	6108.000000	14.000000	0.000000	0.000000	0.000000
062MH173	6112.360000	14.640000	0.000000	0.000000	0.000000
062MH174	6121.330000	14.670000	0.000000	0.000000	0.000000
062MH176	6126.330000	13.670000	0.000000	0.000000	0.000000
062MH178	6129.330000	15.670000	0.000000	0.000000	0.000000
062MH180	6144.000000	15.000000	0.000000	0.000000	0.000000
062MH185	6139.000000	12.000000	0.000000	0.000000	0.000000
062MH186	6135.190000	10.810000	0.000000	0.000000	0.000000
062MH187	6132.540000	12.460000	0.000000	0.000000	0.000000
062MH188	6128.070000	12.930000	0.000000	0.000000	0.000000
062MH195	6121.500000	14.500000	0.000000	0.000000	0.000000
062MH196	6119.350000	13.650000	0.000000	0.000000	0.000000
062MH198	6116.500000	11.500000	0.000000	0.000000	0.000000
062MH199	6111.000000	13.000000	0.000000	0.000000	0.000000
062MH200	6109.930000	14.070000	0.000000	0.000000	0.000000
062MH206	6106.100000	15.900000	0.000000	0.000000	0.000000
062MH216	6104.200000	13.800000	0.000000	0.000000	0.000000
062MH217	6105.000000	16.000000	0.000000	0.000000	0.000000
062MH220	6099.650000	15.350000	0.000000	0.000000	0.000000
062MH223	6096.800000	15.200000	0.000000	0.000000	0.000000
062MH225	6093.960000	14.040000	0.000000	0.000000	0.000000
062MH226	6095.460000	14.540000	0.000000	0.000000	0.000000
062MH227	6093.200000	14.800000	0.000000	0.000000	0.000000
062MH230	6092.350000	13.650000	0.000000	0.000000	0.000000
062MH233	6090.700000	14.300000	0.000000	0.000000	0.000000
062MH235	6089.170000	18.830000	0.000000	0.000000	0.000000
062MH236	6087.500000	20.500000	0.000000	0.000000	0.000000
062MH237	6082.820000	10.180000	0.000000	0.000000	0.000000
062MH238	6081.700000	15.300000	0.000000	0.000000	0.000000
062MH239	6080.690000	15.310000	0.000000	0.000000	0.000000
062MH240	6080.080000	14.920000	0.000000	0.000000	0.000000
062MH241	6078.430000	15.570000	0.000000	0.000000	0.000000
062MH242	6078.950000	15.050000	0.000000	0.000000	0.000000
062MH246	6076.650000	17.350000	0.000000	0.000000	0.000000
062MH247	6077.430000	16.570000	0.000000	0.000000	0.000000
062MH248	6074.550000	14.450000	0.000000	0.000000	0.000000
062MH249	6075.760000	14.240000	0.000000	0.000000	0.000000
062MH250	6072.660000	17.340000	0.000000	0.000000	0.000000
062MH251	6073.920000	14.080000	0.000000	0.000000	0.000000
062MH252	6071.480000	15.520000	0.000000	0.000000	0.000000
062MH255	6069.970000	18.030000	0.000000	0.000000	0.000000
062MH256	6072.080000	14.920000	0.000000	0.000000	0.000000
062MH257	6070.900000	13.100000	0.000000	0.000000	0.000000