[TITLE]
;;Project Title/Notes

[OPTIONS]
;;Option             Value
FLOW_UNITS           MGD
INFILTRATION         HORTON
FLOW_ROUTING         KINWAVE
LINK_OFFSETS         DEPTH
MIN_SLOPE            0
ALLOW_PONDING        YES
SKIP_STEADY_STATE    NO

START_DATE           12/12/2018
START_TIME           00:00:00
REPORT_START_DATE    12/12/2018
REPORT_START_TIME    00:00:00
END_DATE             12/12/2018
END_TIME             00:00:00
SWEEP_START          1/1
SWEEP_END            12/31
DRY_DAYS             0
REPORT_STEP          00:15:00
WET_STEP             00:05:00
DRY_STEP             01:00:00
ROUTING_STEP         0:00:30 

INERTIAL_DAMPING     PARTIAL
NORMAL_FLOW_LIMITED  BOTH
FORCE_MAIN_EQUATION  H-W
VARIABLE_STEP        0.75
LENGTHENING_STEP     0
MIN_SURFAREA         0
MAX_TRIALS           0
HEAD_TOLERANCE       0
SYS_FLOW_TOL         5
LAT_FLOW_TOL         5
MINIMUM_STEP         0.5
THREADS              1

[EVAPORATION]
;;Data Source    Parameters
;;-------------- ----------------
CONSTANT         0.0
DRY_ONLY         NO

[SUBCATCHMENTS]
;;Name           Rain Gage        Outlet           Area     %Imperv  Width    %Slope   CurbLen  SnowPack        
;;-------------- ---------------- ---------------- -------- -------- -------- -------- -------- ----------------
; Name Raingage Outlet Area %Imperv Width Slope Clength
1022             1                1022             4.816650 100.000000 258.429179 1.530771 0.000000                 
114              1                114              0.984942 100.000000 116.862282 0.757081 0.000000                 
1166             1                1166             8.251940 100.000000 338.257194 0.795131 0.000000                 
11888            1                11888            0.758598 100.000000 102.559275 3.782388 0.000000                 
11889            1                11889            1.035596 100.000000 119.829600 0.384837 0.000000                 
11890            1                11890            1.119566 100.000000 124.593044 0.959027 0.000000                 
11891            1                11891            1.150100 100.000000 126.280673 1.809061 0.000000                 
11892            1                11892            0.878305 100.000000 110.354884 5.394411 0.000000                 
11893            1                11893            1.377956 100.000000 138.225040 5.927023 0.000000                 
11894            1                11894            1.324376 100.000000 135.511055 5.934206 0.000000                 
11895            1                11895            1.225705 100.000000 130.365304 5.127875 0.000000                 
11896            1                11896            0.647501 100.000000 94.752187 3.933279 0.000000                 
11897            1                11897            1.485328 100.000000 143.509346 4.101075 0.000000                 
11898            1                11898            0.644435 100.000000 94.527581 0.997398 0.000000                 
11899            1                11899            1.247701 100.000000 131.529822 0.998562 0.000000                 
11900            1                11900            0.621169 100.000000 92.805501 0.849507 0.000000                 
11901            1                11901            0.586588 100.000000 90.185294 1.141142 0.000000                 
11902            1                11902            1.149496 100.000000 126.247470 0.993053 0.000000                 
11903            1                11903            0.526397 100.000000 85.433036 1.150729 0.000000                 
11904            1                11904            0.623057 100.000000 92.946451 4.124562 0.000000                 
11905            1                11905            0.494824 100.000000 82.831263 6.000871 0.000000                 
11906            1                11906            1.036154 100.000000 119.861904 4.887959 0.000000                 
11907            1                11907            0.914935 100.000000 112.632632 4.671544 0.000000                 
11908            1                11908            1.267119 100.000000 132.549378 5.354794 0.000000                 
11909            1                11909            1.464956 100.000000 142.521794 4.086120 0.000000                 
11910            1                11910            1.031179 100.000000 119.573812 1.102805 0.000000                 
11911            1                11911            0.941236 100.000000 114.239989 1.098032 0.000000                 
11912            1                11912            1.794573 100.000000 157.742804 4.043596 0.000000                 
11913            1                11913            1.820738 100.000000 158.888584 0.394873 0.000000                 
11914            1                11914            1.401618 100.000000 139.406772 1.763964 0.000000                 
11915            1                11915            0.946885 100.000000 114.582300 4.900831 0.000000                 
11916            1                11916            1.782614 100.000000 157.216334 1.139449 0.000000                 
11917            1                11917            1.537585 100.000000 146.011997 5.004046 0.000000                 
11918            1                11918            2.114617 100.000000 171.231989 5.037760 0.000000                 
11919            1                11919            1.139963 100.000000 125.722918 1.716207 0.000000                 
11920            1                11920            0.651537 100.000000 95.047011 0.976025 0.000000                 
11921            1                11921            0.978074 100.000000 116.454147 1.044120 0.000000                 
11922            1                11922            0.425906 100.000000 76.846857 3.934097 0.000000                 
11923            1                11923            0.723430 100.000000 100.153778 2.743953 0.000000                 
11924            1                11924            1.752222 100.000000 155.870349 6.028914 0.000000                 
11925            1                11925            1.365613 100.000000 137.604559 4.291458 0.000000                 
11926            1                11926            1.893914 100.000000 162.050051 6.777302 0.000000                 
11927            1                11927            1.075844 100.000000 122.135979 5.767772 0.000000                 
11928            1                11928            0.926489 100.000000 113.341521 7.133369 0.000000                 
11929            1                11929            1.295499 100.000000 134.025538 5.181347 0.000000                 
11930            1                11930            1.128371 100.000000 125.082018 3.040469 0.000000                 
11932            1                11932            1.912102 100.000000 162.826298 3.872395 0.000000                 
11933            1                11933            0.964580 100.000000 115.648012 4.636496 0.000000                 
11934            1                11934            0.754763 100.000000 102.299710 2.876838 0.000000                 
11935            1                11935            0.294721 100.000000 63.925608 2.752452 0.000000                 
11936            1                11936            1.015660 100.000000 118.670611 4.005419 0.000000                 
11937            1                11937            1.299353 100.000000 134.224727 4.001125 0.000000                 
11938            1                11938            0.304775 100.000000 65.006749 6.059233 0.000000                 
11939            1                11939            0.560848 100.000000 88.184369 4.742652 0.000000                 
11940            1                11940            1.403315 100.000000 139.491134 4.025055 0.000000                 
11941            1                11941            1.742843 100.000000 155.452643 6.198522 0.000000                 
11942            1                11942            0.769335 100.000000 103.282526 2.964706 0.000000                 
11943            1                11943            0.921880 100.000000 113.059263 1.313891 0.000000                 
11944            1                11944            0.836755 100.000000 107.712987 0.083846 0.000000                 
11945            1                11945            1.453755 100.000000 141.975907 1.004455 0.000000                 
11946            1                11946            1.751003 100.000000 155.816150 1.723434 0.000000                 
11947            1                11947            1.031070 100.000000 119.567496 1.220593 0.000000                 
11948            1                11948            1.325154 100.000000 135.550804 1.205568 0.000000                 
11949            1                11949            1.585643 100.000000 148.276273 1.411190 0.000000                 
1195             1                1195             10.145076 100.000000 375.056462 2.275724 0.000000                 
11950            1                11950            0.758613 100.000000 102.560283 0.528580 0.000000                 
11951            1                11951            0.877664 100.000000 110.314622 1.331405 0.000000                 
11952            1                11952            1.200549 100.000000 129.020587 1.002090 0.000000                 
11953            1                11953            0.868057 100.000000 109.709219 1.385592 0.000000                 
11954            1                11954            1.492090 100.000000 143.835636 1.746672 0.000000                 
11956            1                11956            0.903014 100.000000 111.896443 2.274854 0.000000                 
11957            1                11957            0.829772 100.000000 107.262607 0.491321 0.000000                 
11958            1                11958            0.802489 100.000000 105.484490 1.688856 0.000000                 
11959            1                11959            1.263790 100.000000 132.375148 3.551490 0.000000                 
11960            1                11960            1.173785 100.000000 127.574332 2.383901 0.000000                 
11961            1                11961            0.945962 100.000000 114.526436 0.670879 0.000000                 
11962            1                11962            1.332876 100.000000 135.945185 1.595882 0.000000                 
11963            1                11963            1.359586 100.000000 137.300595 2.194488 0.000000                 
11964            1                11964            0.779209 100.000000 103.943166 2.364898 0.000000                 
11965            1                11965            0.984575 100.000000 116.840477 2.591995 0.000000                 
11966            1                11966            1.255319 100.000000 131.930780 1.558438 0.000000                 
11967            1                11967            1.483157 100.000000 143.404428 1.505450 0.000000                 
11968            1                11968            1.603014 100.000000 149.086268 2.376417 0.000000                 
11969            1                11969            2.044775 100.000000 168.380505 2.060210 0.000000                 
11970            1                11970            0.802908 100.000000 105.512008 4.878171 0.000000                 
11971            1                11971            0.972752 100.000000 116.136844 1.826259 0.000000                 
11972            1                11972            0.707289 100.000000 99.030167 1.997337 0.000000                 
11973            1                11973            0.841437 100.000000 108.013926 1.218112 0.000000                 
11974            1                11974            0.972815 100.000000 116.140640 1.933545 0.000000                 
11975            1                11975            1.062536 100.000000 121.378232 3.290591 0.000000                 
11976            1                11976            2.076945 100.000000 169.699856 4.104194 0.000000                 
11977            1                11977            2.376438 100.000000 181.523247 3.405792 0.000000                 
11978            1                11978            1.808014 100.000000 158.332436 5.892818 0.000000                 
11980            1                11980            0.688031 100.000000 97.672687 7.874026 0.000000                 
11981            1                11981            1.622170 100.000000 149.974407 1.104056 0.000000                 
11982            1                11982            2.310640 100.000000 178.992646 1.615739 0.000000                 
11983            1                11983            1.048641 100.000000 120.581970 0.680000 0.000000                 
11984            1                11984            2.036312 100.000000 168.031695 1.639968 0.000000                 
11985            1                11985            1.779111 100.000000 157.061770 1.311209 0.000000                 
11986            1                11986            0.462744 100.000000 80.101295 4.338698 0.000000                 
11987            1                11987            0.377585 100.000000 72.356284 4.239985 0.000000                 
11988            1                11988            0.632107 100.000000 93.619056 3.922266 0.000000                 
11989            1                11989            0.814969 100.000000 106.301539 3.397576 0.000000                 
11990            1                11990            0.651655 100.000000 95.055668 3.241779 0.000000                 
11991            1                11991            1.330645 100.000000 135.831356 3.533985 0.000000                 
11992            1                11992            0.856614 100.000000 108.983723 14.133250 0.000000                 
11993            1                11993            1.776502 100.000000 156.946574 4.773099 0.000000                 
11994            1                11994            1.433648 100.000000 140.990618 4.746928 0.000000                 
11995            1                11995            1.638003 100.000000 150.704554 2.402793 0.000000                 
11996            1                11996            0.380976 100.000000 72.680506 4.363361 0.000000                 
11997            1                11997            0.274388 100.000000 61.681071 1.172549 0.000000                 
11998            1                11998            0.570042 100.000000 88.904238 3.255437 0.000000                 
11999            1                11999            1.900570 100.000000 162.334520 1.595308 0.000000                 
12000            1                12000            2.874396 100.000000 199.637594 1.498654 0.000000                 
12001            1                12001            8.589515 100.000000 345.106640 1.983593 0.000000                 
12002            1                12002            0.595676 100.000000 90.881223 1.486413 0.000000                 
12003            1                12003            0.417007 100.000000 76.039727 4.745110 0.000000                 
12004            1                12004            0.694189 100.000000 98.108756 2.608625 0.000000                 
12005            1                12005            0.392773 100.000000 73.797197 4.069113 0.000000                 
12006            1                12006            0.689763 100.000000 97.795540 1.228653 0.000000                 
12007            1                12007            0.729501 100.000000 100.573096 0.000000 0.000000                 
12008            1                12008            0.543128 100.000000 86.780105 0.574154 0.000000                 
12009            1                12009            0.596763 100.000000 90.964080 1.391800 0.000000                 
12010            1                12010            1.046131 100.000000 120.437586 1.118099 0.000000                 
12011            1                12011            0.754942 100.000000 102.311815 2.432889 0.000000                 
12012            1                12012            0.366616 100.000000 71.297524 1.766500 0.000000                 
12013            1                12013            0.970556 100.000000 116.005719 4.656740 0.000000                 
12014            1                12014            0.655370 100.000000 95.326178 5.336180 0.000000                 
12015            1                12015            1.318521 100.000000 135.211133 7.048290 0.000000                 
12016            1                12016            0.326609 100.000000 67.295092 2.453222 0.000000                 
12017            1                12017            0.344433 100.000000 69.106880 0.000000 0.000000                 
12018            1                12018            0.861544 100.000000 109.296893 1.967098 0.000000                 
12019            1                12019            1.499490 100.000000 144.191872 1.005033 0.000000                 
12020            1                12020            1.658899 100.000000 151.662785 1.888608 0.000000                 
12021            1                12021            1.778143 100.000000 157.019065 6.390029 0.000000                 
12022            1                12022            0.936798 100.000000 113.970352 1.486464 0.000000                 
12023            1                12023            0.699011 100.000000 98.448959 1.275624 0.000000                 
12024            1                12024            0.929541 100.000000 113.528073 1.624754 0.000000                 
12025            1                12025            1.052542 100.000000 120.806063 1.658723 0.000000                 
12026            1                12026            1.330591 100.000000 135.828639 1.599475 0.000000                 
12027            1                12027            1.122592 100.000000 124.761337 1.549579 0.000000                 
12028            1                12028            1.621024 100.000000 149.921432 1.564866 0.000000                 
12029            1                12029            0.632260 100.000000 93.630395 1.547404 0.000000                 
12030            1                12030            1.179809 100.000000 127.901245 1.060695 0.000000                 
12031            1                12031            0.795364 100.000000 105.015154 1.201065 0.000000                 
12032            1                12032            0.477087 100.000000 81.333150 1.182512 0.000000                 
12033            1                12033            1.075538 100.000000 122.118613 2.343604 0.000000                 
12034            1                12034            0.313383 100.000000 65.918363 1.974293 0.000000                 
12035            1                12035            0.390494 100.000000 73.582742 1.225469 0.000000                 
12036            1                12036            1.384709 100.000000 138.563298 1.210192 0.000000                 
12037            1                12037            2.082167 100.000000 169.913068 1.009276 0.000000                 
12038            1                12038            2.342956 100.000000 180.239948 0.467859 0.000000                 
12039            1                12039            1.990915 100.000000 166.148098 0.755936 0.000000                 
12040            1                12040            1.622605 100.000000 149.994534 0.872054 0.000000                 
12041            1                12041            1.821294 100.000000 158.912873 1.192694 0.000000                 
12042            1                12042            2.007967 100.000000 166.858100 0.988248 0.000000                 
12043            1                12043            1.358765 100.000000 137.259088 0.342042 0.000000                 
12044            1                12044            1.219972 100.000000 130.060060 1.292386 0.000000                 
12045            1                12045            1.305342 100.000000 134.533735 0.913937 0.000000                 
12046            1                12046            1.029655 100.000000 119.485392 1.320785 0.000000                 
12047            1                12047            0.694136 100.000000 98.105053 1.539206 0.000000                 
12048            1                12048            0.697626 100.000000 98.351340 1.026477 0.000000                 
12049            1                12049            0.422054 100.000000 76.498542 1.316511 0.000000                 
12050            1                12050            0.465669 100.000000 80.354040 1.455806 0.000000                 
12051            1                12051            0.574373 100.000000 89.241287 2.203054 0.000000                 
12052            1                12052            1.085242 100.000000 122.668284 1.464539 0.000000                 
12053            1                12053            0.909044 100.000000 112.269440 2.940124 0.000000                 
12054            1                12054            0.905821 100.000000 112.070217 2.223075 0.000000                 
12055            1                12055            1.204280 100.000000 129.220906 2.935609 0.000000                 
12056            1                12056            1.578513 100.000000 147.942563 8.062908 0.000000                 
12057            1                12057            0.703699 100.000000 98.778516 1.902696 0.000000                 
12058            1                12058            0.836003 100.000000 107.664599 4.520162 0.000000                 
12059            1                12059            1.902036 100.000000 162.397134 10.179548 0.000000                 
12060            1                12060            1.095134 100.000000 123.226055 6.266426 0.000000                 
12061            1                12061            1.141765 100.000000 125.822216 1.011674 0.000000                 
12062            1                12062            1.130905 100.000000 125.222400 2.757762 0.000000                 
12063            1                12063            1.466358 100.000000 142.589962 0.885670 0.000000                 
12064            1                12064            2.425297 100.000000 183.379784 0.941210 0.000000                 
12065            1                12065            2.295775 100.000000 178.415957 0.967723 0.000000                 
12066            1                12066            1.231891 100.000000 130.693863 1.159794 0.000000                 
12067            1                12067            1.606961 100.000000 149.269684 1.509132 0.000000                 
12068            1                12068            1.609356 100.000000 149.380899 3.012245 0.000000                 
12069            1                12069            1.517422 100.000000 145.051495 2.997894 0.000000                 
12070            1                12070            1.303178 100.000000 134.422183 2.089784 0.000000                 
12071            1                12071            0.468067 100.000000 80.560663 1.871057 0.000000                 
12072            1                12072            1.235632 100.000000 130.892156 1.918512 0.000000                 
12074            1                12074            1.584221 100.000000 148.209787 1.718351 0.000000                 
12075            1                12075            1.638171 100.000000 150.712286 1.777499 0.000000                 
12076            1                12076            1.092959 100.000000 123.103624 15.042017 0.000000                 
12076.2          1                12076            0.348686 100.000000 69.563600 15.042017 0.000000                 
12077            1                12077            1.543127 100.000000 146.274903 1.654492 0.000000                 
12078            1                12078            1.453045 100.000000 141.941240 3.935916 0.000000                 
12079            1                12079            1.587571 100.000000 148.366421 2.439418 0.000000                 
12080            1                12080            0.485889 100.000000 82.080040 2.256020 0.000000                 
12081            1                12081            1.068741 100.000000 121.732147 2.554167 0.000000                 
12082            1                12082            17.138102 100.000000 487.472768 1.030126 0.000000                 
12083            1                12083            0.370062 100.000000 71.631878 2.188628 0.000000                 
12084            1                12084            0.681024 100.000000 97.174013 1.799035 0.000000                 
12085            1                12085            0.889011 100.000000 111.025473 0.343423 0.000000                 
12086            1                12086            0.563908 100.000000 88.424618 1.317967 0.000000                 
12087            1                12087            0.764882 100.000000 102.983162 0.000000 0.000000                 
12088            1                12088            0.663738 100.000000 95.932814 5.967642 0.000000                 
12089            1                12089            0.533604 100.000000 86.015844 6.143174 0.000000                 
12090            1                12090            0.473136 100.000000 80.995677 7.075571 0.000000                 
12092            1                12092            0.726293 100.000000 100.351713 0.515376 0.000000                 
12093            1                12093            0.916737 100.000000 112.743437 2.625232 0.000000                 
12095            1                12095            0.803254 100.000000 105.534755 4.507329 0.000000                 
12096            1                12096            0.799833 100.000000 105.309754 3.928874 0.000000                 
12097            1                12097            3.484892 100.000000 219.818197 0.805095 0.000000                 
12098            1                12098            0.491401 100.000000 82.544279 1.972727 0.000000                 
12099            1                12099            0.525160 100.000000 85.332562 3.063973 0.000000                 
12100            1                12100            0.693247 100.000000 98.042202 3.210394 0.000000                 
12101            1                12101            0.480424 100.000000 81.617140 2.086614 0.000000                 
12102            1                12102            0.544691 100.000000 86.904836 1.989101 0.000000                 
12103            1                12103            0.666367 100.000000 96.122619 3.041589 0.000000                 
12104            1                12104            0.745424 100.000000 101.664839 3.753400 0.000000                 
12105            1                12105            0.671968 100.000000 96.525785 3.645991 0.000000                 
12106            1                12106            0.770531 100.000000 103.362736 2.098175 0.000000                 
12107            1                12107            0.801997 100.000000 105.452125 3.664185 0.000000                 
1239             1                1239             2.495874 100.000000 186.028853 2.233556 0.000000                 
1240             1                1240             1.459859 100.000000 142.273635 2.496608 0.000000                 
12422            1                12422            0.944486 100.000000 114.437099 3.179992 0.000000                 
12423            1                12423            1.279632 100.000000 133.202238 2.613944 0.000000                 
12424            1                12424            1.520446 100.000000 145.195969 5.760604 0.000000                 
12425            1                12425            0.625315 100.000000 93.114731 1.812608 0.000000                 
12426            1                12426            1.177397 100.000000 127.770452 6.070379 0.000000                 
12427            1                12427            1.234062 100.000000 130.808950 4.032988 0.000000                 
12428            1                12428            0.927708 100.000000 113.416087 1.886853 0.000000                 
12429            1                12429            0.939064 100.000000 114.108129 3.765453 0.000000                 
12430            1                12430            1.023849 100.000000 119.148081 1.917827 0.000000                 
12431            1                12431            1.253564 100.000000 131.838476 2.675097 0.000000                 
12432            1                12432            0.930227 100.000000 113.569982 2.753516 0.000000                 
12433            1                12433            1.710618 100.000000 154.008804 5.416086 0.000000                 
12436            1                12436            2.436408 100.000000 183.799352 3.512318 0.000000                 
12439            1                12439            2.091113 100.000000 170.277681 3.536155 0.000000                 
12440            1                12440            0.834926 100.000000 107.595206 3.075209 0.000000                 
12441            1                12441            2.057333 100.000000 168.896754 2.866396 0.000000                 
12442            1                12442            0.875112 100.000000 110.154153 3.208225 0.000000                 
12443            1                12443            0.490989 100.000000 82.509650 1.226766 0.000000                 
12444            1                12444            0.907703 100.000000 112.186561 1.000851 0.000000                 
12445            1                12445            1.024912 100.000000 119.209871 3.380365 0.000000                 
12446            1                12446            1.186059 100.000000 128.239616 0.759074 0.000000                 
12447            1                12447            0.897326 100.000000 111.543444 3.251754 0.000000                 
12448            1                12448            1.288953 100.000000 133.686499 1.000274 0.000000                 
12449            1                12449            0.918265 100.000000 112.837389 2.447870 0.000000                 