[OPTIONS]
;Option and Files Scenario Set: OPT-5, WWF
FLOW_UNITS		MGD
INFILTRATION		HORTON
FLOW_ROUTING		DYNWAVE
LINK_OFFSETS		DEPTH
MIN_SLOPE		0.000000
ALLOW_PONDING		YES
SKIP_STEADY_STATE 	NO
IGNORE_RAINFALL		NO
IGNORE_SNOWMELT		NO
IGNORE_GROUNDWATER	NO
IGNORE_QUALITY		NO

START_DATE		09/18/2018
START_TIME		00:00
REPORT_START_DATE	09/19/2018
REPORT_START_TIME	00:00
END_DATE		09/22/2018
END_TIME		23:00
SWEEP_START		01/01
SWEEP_END		01/01
DRY_DAYS		5.000000
REPORT_STEP		00:01:00
WET_STEP		00:05:00
DRY_STEP		00:05:00
ROUTING_STEP		10

INERTIAL_DAMPING	NONE
NORMAL_FLOW_LIMITED	SLOPE
FORCE_MAIN_EQUATION	H-W
VARIABLE_STEP		0.750000
LENGTHENING_STEP	5
MIN_SURFAREA		0.000000
MAX_TRIALS		8
HEAD_TOLERANCE	0.000100
MINIMUM_STEP		0.000000


[FILES]

[RAINGAGES]

[HYDROGRAPHS]

[TEMPERATURE]

[SUBCATCHMENTS]

[SUBAREAS]

[INFILTRATION]

[AQUIFERS]

[GROUNDWATER]

[GWF]

[SNOWPACKS]

[JUNCTIONS]
JCT-10	972.056000	12.000000	0.000000	0.000000	0.000000
JCT-100	959.169001	24.299999	0.000000	0.000000	0.000000
JCT-1000	984.137000	8.700000	0.000000	0.000000	0.000000
JCT-1002	987.298000	9.600000	0.000000	0.000000	0.000000
JCT-1004	985.952000	9.600000	0.000000	0.000000	0.000000
JCT-1006	986.648000	10.400000	0.000000	0.000000	0.000000
JCT-1008	979.305000	13.300000	0.000000	0.000000	0.000000
JCT-1010	981.864000	8.100000	0.000000	0.000000	0.000000
JCT-1012	984.893000	11.600000	0.000000	0.000000	0.000000
JCT-1014	983.792000	10.000000	0.000000	0.000000	0.000000
JCT-1016	978.220000	9.400000	0.000000	0.000000	0.000000
JCT-1018	977.043000	9.700000	0.000000	0.000000	0.000000
JCT-102	958.651000	24.200001	0.000000	0.000000	0.000000
JCT-1020	976.037000	11.600000	0.000000	0.000000	0.000000
JCT-1022	974.157000	14.800000	0.000000	0.000000	0.000000
JCT-1024	974.159000	8.000000	0.000000	0.000000	0.000000
JCT-1026	974.047000	7.100000	0.000000	0.000000	0.000000
JCT-1028	972.149000	6.000000	0.000000	0.000000	0.000000
JCT-1030	971.945000	5.000000	0.000000	0.000000	0.000000
JCT-1032	971.500000	5.000000	0.000000	0.000000	0.000000
JCT-1034	970.596000	13.000000	0.000000	0.000000	0.000000
JCT-1036	969.511000	16.600000	0.000000	0.000000	0.000000
JCT-1038	969.854000	16.500000	0.000000	0.000000	0.000000
JCT-104	958.133999	22.200001	0.000000	0.000000	0.000000
JCT-1040	968.592000	15.700000	0.000000	0.000000	0.000000
JCT-1042	968.270001	16.299999	0.000000	0.000000	0.000000
JCT-1044	967.413000	10.400000	0.000000	0.000000	0.000000
JCT-1046	960.080000	15.600000	0.000000	0.000000	0.000000
JCT-1048	963.473000	12.200000	0.000000	0.000000	0.000000
JCT-1050	960.080000	16.000000	0.000000	0.000000	0.000000
JCT-1052	961.730000	19.600000	0.000000	0.000000	0.000000
JCT-1054	963.394999	17.200001	0.000000	0.000000	0.000000
JCT-1056	978.104000	10.200000	0.000000	0.000000	0.000000
JCT-1058	986.173000	10.400000	0.000000	0.000000	0.000000
JCT-106	957.902000	22.500000	0.000000	0.000000	0.000000
JCT-1060	987.511000	14.200000	0.000000	0.000000	0.000000
JCT-1062	979.872000	12.400000	0.000000	0.000000	0.000000
JCT-1064	979.183999	16.700001	0.000000	0.000000	0.000000
JCT-1066	978.971000	19.900000	0.000000	0.000000	0.000000
JCT-1068	975.393000	15.600000	0.000000	0.000000	0.000000
JCT-1070	974.600000	16.600000	0.000000	0.000000	0.000000
JCT-1072	973.395001	17.799999	0.000000	0.000000	0.000000
JCT-1074	975.630000	14.700000	0.000000	0.000000	0.000000
JCT-1076	981.130000	12.000000	0.000000	0.000000	0.000000
JCT-1078	978.039000	15.000000	0.000000	0.000000	0.000000
JCT-108	957.350000	21.600000	0.000000	0.000000	0.000000
JCT-1080	1002.186000	11.000000	0.000000	0.000000	0.000000
JCT-1082	1003.404000	16.600000	0.000000	0.000000	0.000000
JCT-1084	1014.789000	10.000000	0.000000	0.000000	0.000000
JCT-1086	1002.381000	20.400000	0.000000	0.000000	0.000000
JCT-1088	978.524000	14.300000	0.000000	0.000000	0.000000
JCT-1090	986.858000	12.600000	0.000000	0.000000	0.000000
JCT-1092	959.363000	14.600000	0.000000	0.000000	0.000000
JCT-1094	959.222000	14.400000	0.000000	0.000000	0.000000
JCT-1096	959.000000	12.800000	0.000000	0.000000	0.000000
JCT-1098	958.308000	8.300000	0.000000	0.000000	0.000000
JCT-110	956.583999	18.200001	0.000000	0.000000	0.000000
JCT-1100	961.449000	6.200000	0.000000	0.000000	0.000000
JCT-1102	957.530000	10.400000	0.000000	0.000000	0.000000
JCT-1104	956.159000	9.700000	0.000000	0.000000	0.000000
JCT-1106	958.001000	7.800000	0.000000	0.000000	0.000000
JCT-1108	955.123000	10.600000	0.000000	0.000000	0.000000
JCT-1110	971.934000	9.600000	0.000000	0.000000	0.000000
JCT-1112	974.530000	10.600000	0.000000	0.000000	0.000000
JCT-1114	967.143000	11.400000	0.000000	0.000000	0.000000
JCT-1116	973.492000	11.700000	0.000000	0.000000	0.000000
JCT-1118	990.730000	9.000000	0.000000	0.000000	0.000000
JCT-112	955.989000	16.100000	0.000000	0.000000	0.000000
JCT-1120	989.035000	8.700000	0.000000	0.000000	0.000000
JCT-1122	983.012000	11.600000	0.000000	0.000000	0.000000
JCT-1124	989.426000	15.700000	0.000000	0.000000	0.000000
JCT-1126	988.371000	13.000000	0.000000	0.000000	0.000000
JCT-1128	984.401000	14.600000	0.000000	0.000000	0.000000
JCT-1130	1009.677000	8.000000	0.000000	0.000000	0.000000
JCT-1132	1007.430000	9.000000	0.000000	0.000000	0.000000
JCT-1134	1001.802000	11.900000	0.000000	0.000000	0.000000
JCT-1136	1001.109000	13.000000	0.000000	0.000000	0.000000
JCT-1138	1000.176000	14.400000	0.000000	0.000000	0.000000
JCT-114	954.991000	13.400000	0.000000	0.000000	0.000000
JCT-1140	999.116000	13.600000	0.000000	0.000000	0.000000
JCT-1142	996.368000	11.400000	0.000000	0.000000	0.000000
JCT-1144	999.534000	8.200000	0.000000	0.000000	0.000000
JCT-1146	994.925000	12.800000	0.000000	0.000000	0.000000
JCT-1148	994.341000	13.000000	0.000000	0.000000	0.000000
JCT-1150	993.226000	11.700000	0.000000	0.000000	0.000000
JCT-1152	1000.800000	4.800000	0.000000	0.000000	0.000000
JCT-1154	994.039000	12.000000	0.000000	0.000000	0.000000
JCT-1156	993.339000	13.600000	0.000000	0.000000	0.000000
JCT-1158	990.164000	17.000000	0.000000	0.000000	0.000000
JCT-116	954.606000	13.200000	0.000000	0.000000	0.000000
JCT-1160	988.955000	17.500000	0.000000	0.000000	0.000000
JCT-1162	987.462000	10.300000	0.000000	0.000000	0.000000
JCT-1164	985.420000	13.600000	0.000000	0.000000	0.000000
JCT-1166	995.892000	8.000000	0.000000	0.000000	0.000000
JCT-1168	994.490000	9.000000	0.000000	0.000000	0.000000
JCT-1170	991.297000	15.400000	0.000000	0.000000	0.000000
JCT-1172	991.294000	12.000000	0.000000	0.000000	0.000000
JCT-1174	990.299000	12.900000	0.000000	0.000000	0.000000
JCT-1176	988.225000	14.500000	0.000000	0.000000	0.000000
JCT-1178	987.204000	11.700000	0.000000	0.000000	0.000000
JCT-118	954.313000	13.600000	0.000000	0.000000	0.000000
JCT-1180	988.406000	12.800000	0.000000	0.000000	0.000000
JCT-1182	986.990000	12.600000	0.000000	0.000000	0.000000
JCT-1184	987.726000	12.000000	0.000000	0.000000	0.000000
JCT-1186	982.845000	12.900000	0.000000	0.000000	0.000000
JCT-1188	984.952000	16.900000	0.000000	0.000000	0.000000
JCT-1190	986.892000	19.500000	0.000000	0.000000	0.000000
JCT-1192	992.410000	10.000000	0.000000	0.000000	0.000000
JCT-1194	990.579000	9.400000	0.000000	0.000000	0.000000
JCT-1196	987.907000	7.900000	0.000000	0.000000	0.000000
JCT-1198	986.226000	10.000000	0.000000	0.000000	0.000000
JCT-12	966.508000	18.500000	0.000000	0.000000	0.000000
JCT-120	958.703000	14.000000	0.000000	0.000000	0.000000
JCT-1200	971.510000	19.100000	0.000000	0.000000	0.000000
JCT-1202	979.195000	9.600000	0.000000	0.000000	0.000000
JCT-1204	970.491000	10.110000	0.000000	0.000000	0.000000
JCT-1206	965.068000	8.100000	0.000000	0.000000	0.000000
JCT-1208	991.198000	8.700000	0.000000	0.000000	0.000000
JCT-1210	982.996000	10.500000	0.000000	0.000000	0.000000
JCT-1212	961.737000	13.300000	0.000000	0.000000	0.000000
JCT-1214	955.651000	7.800000	0.000000	0.000000	0.000000
JCT-1216	956.352000	9.100000	0.000000	0.000000	0.000000
JCT-1218	957.565000	8.900000	0.000000	0.000000	0.000000
JCT-122	960.338000	15.000000	0.000000	0.000000	0.000000
JCT-1220	957.952000	9.700000	0.000000	0.000000	0.000000
JCT-1222	958.266000	12.100000	0.000000	0.000000	0.000000
JCT-1224	959.025001	16.299999	0.000000	0.000000	0.000000
JCT-1226	959.905000	9.300000	0.000000	0.000000	0.000000
JCT-1228	973.989000	9.800000	0.000000	0.000000	0.000000
JCT-1230	970.572000	17.400000	0.000000	0.000000	0.000000
JCT-1232	992.095000	9.900000	0.000000	0.000000	0.000000
JCT-1234	986.366000	10.900000	0.000000	0.000000	0.000000
JCT-1236	968.498000	9.700000	0.000000	0.000000	0.000000
JCT-1238	953.710000	14.700000	0.000000	0.000000	0.000000
JCT-124	971.349000	13.600000	0.000000	0.000000	0.000000
JCT-1240	953.200000	12.700000	0.000000	0.000000	0.000000
JCT-1242	953.100000	10.000000	0.000000	0.000000	0.000000
JCT-1244	984.780000	10.000000	0.000000	0.000000	0.000000
JCT-1246	988.520000	9.100000	0.000000	0.000000	0.000000
JCT-1248	985.677000	11.100000	0.000000	0.000000	0.000000
JCT-1250	982.813000	11.800000	0.000000	0.000000	0.000000
JCT-1252	990.722000	9.500000	0.000000	0.000000	0.000000
JCT-1254	989.768000	9.900000	0.000000	0.000000	0.000000
JCT-1256	993.750000	7.000000	0.000000	0.000000	0.000000
JCT-1258	995.105000	5.100000	0.000000	0.000000	0.000000
JCT-126	976.916000	11.800000	0.000000	0.000000	0.000000
JCT-1260	993.071000	8.800000	0.000000	0.000000	0.000000
JCT-1262	993.512000	7.500000	0.000000	0.000000	0.000000
JCT-1264	992.242000	7.000000	0.000000	0.000000	0.000000
JCT-1266	994.437000	5.700000	0.000000	0.000000	0.000000
JCT-1268	993.747000	6.500000	0.000000	0.000000	0.000000
JCT-1270	993.318000	8.500000	0.000000	0.000000	0.000000
JCT-1272	962.274000	21.900000	0.000000	0.000000	0.000000
JCT-1274	988.448000	9.800000	0.000000	0.000000	0.000000
JCT-1276	988.000000	10.100000	0.000000	0.000000	0.000000
JCT-1278	988.736000	12.100000	0.000000	0.000000	0.000000
JCT-128	978.612000	9.800000	0.000000	0.000000	0.000000
JCT-1280	990.341000	9.000000	0.000000	0.000000	0.000000
JCT-1282	990.287000	8.800000	0.000000	0.000000	0.000000
JCT-1284	990.701000	8.600000	0.000000	0.000000	0.000000
JCT-1286	991.485000	8.400000	0.000000	0.000000	0.000000
JCT-1288	991.958000	8.400000	0.000000	0.000000	0.000000
JCT-1290	992.857000	8.000000	0.000000	0.000000	0.000000
JCT-1292	987.800000	10.600000	0.000000	0.000000	0.000000
JCT-1294	985.393000	7.800000	0.000000	0.000000	0.000000
JCT-1296	986.480000	8.900000	0.000000	0.000000	0.000000
JCT-1298	991.548000	5.700000	0.000000	0.000000	0.000000
JCT-130	977.879000	10.600000	0.000000	0.000000	0.000000
JCT-1300	989.024000	8.400000	0.000000	0.000000	0.000000
JCT-1302	990.594000	8.900000	0.000000	0.000000	0.000000
JCT-1304	991.069000	6.800000	0.000000	0.000000	0.000000
JCT-1306	992.681000	5.800000	0.000000	0.000000	0.000000
JCT-1308	993.750000	5.800000	0.000000	0.000000	0.000000
JCT-1310	986.339000	6.400000	0.000000	0.000000	0.000000
JCT-1312	987.601000	6.900000	0.000000	0.000000	0.000000
JCT-1314	989.070000	8.700000	0.000000	0.000000	0.000000
JCT-1316	990.293000	10.000000	0.000000	0.000000	0.000000
JCT-1318	992.814000	10.300000	0.000000	0.000000	0.000000
JCT-132	976.420000	10.300000	0.000000	0.000000	0.000000
JCT-1320	983.707000	15.700000	0.000000	0.000000	0.000000
JCT-1322	966.394000	19.600000	0.000000	0.000000	0.000000
JCT-1324	966.392999	17.110001	0.000000	0.000000	0.000000
JCT-1326	957.430000	16.000000	0.000000	0.000000	0.000000
JCT-1328	965.888000	8.000000	0.000000	0.000000	0.000000
JCT-1330	1001.600000	21.000000	0.000000	0.000000	0.000000
JCT-1332	1001.050001	21.799999	0.000000	0.000000	0.000000
JCT-1334	1000.459000	19.600000	0.000000	0.000000	0.000000
JCT-1336	999.431000	14.500000	0.000000	0.000000	0.000000
JCT-1338	989.424000	12.000000	0.000000	0.000000	0.000000
JCT-134	969.559000	12.100000	0.000000	0.000000	0.000000
JCT-1340	987.975000	13.200000	0.000000	0.000000	0.000000
JCT-1342	995.353000	6.800000	0.000000	0.000000	0.000000
JCT-1344	998.530000	10.000000	0.000000	0.000000	0.000000
JCT-1346	989.609000	12.900000	0.000000	0.000000	0.000000
JCT-1348	987.000000	15.600000	0.000000	0.000000	0.000000
JCT-1352	984.668000	18.100000	0.000000	0.000000	0.000000
JCT-1354	975.771000	19.100000	0.000000	0.000000	0.000000
JCT-1356	966.937000	17.100000	0.000000	0.000000	0.000000
JCT-1358	955.253000	12.600000	0.000000	0.000000	0.000000
JCT-136	969.837000	12.100000	0.000000	0.000000	0.000000
JCT-1360	957.746000	14.600000	0.000000	0.000000	0.000000
JCT-1362	956.438000	9.700000	0.000000	0.000000	0.000000
JCT-1364	956.111000	8.000000	0.000000	0.000000	0.000000
JCT-1366	953.363000	8.600000	0.000000	0.000000	0.000000
JCT-1368	953.486000	9.600000	0.000000	0.000000	0.000000
JCT-1370	975.549000	10.400000	0.000000	0.000000	0.000000
JCT-1372	976.072000	7.000000	0.000000	0.000000	0.000000
JCT-1374	953.402000	9.600000	0.000000	0.000000	0.000000
JCT-1376	954.580000	9.600000	0.000000	0.000000	0.000000
JCT-1378	954.187000	10.400000	0.000000	0.000000	0.000000
JCT-138	972.752000	11.700000	0.000000	0.000000	0.000000
JCT-1380	953.912000	10.400000	0.000000	0.000000	0.000000
JCT-1382	953.815000	10.600000	0.000000	0.000000	0.000000
JCT-1384	955.211000	7.400000	0.000000	0.000000	0.000000
JCT-1386	953.798000	7.000000	0.000000	0.000000	0.000000
JCT-1388	955.353000	8.000000	0.000000	0.000000	0.000000
JCT-1390	953.927000	8.000000	0.000000	0.000000	0.000000
JCT-1392	987.149000	7.800000	0.000000	0.000000	0.000000
JCT-1394	986.500000	10.000000	0.000000	0.000000	0.000000
JCT-1396	962.250000	10.100000	0.000000	0.000000	0.000000
JCT-1398	964.000000	8.900000	0.000000	0.000000	0.000000
JCT-14	963.618999	18.700001	0.000000	0.000000	0.000000
JCT-140	974.080000	11.200000	0.000000	0.000000	0.000000
JCT-1402	966.600000	16.299999	0.000000	0.000000	0.000000
JCT-1404	970.000000	14.800000	0.000000	0.000000	0.000000
JCT-1406	971.400000	11.200000	0.000000	0.000000	0.000000
JCT-1408	973.000000	11.100000	0.000000	0.000000	0.000000
JCT-1410	974.780000	11.400000	0.000000	0.000000	0.000000
JCT-1412	977.380000	18.000000	0.000000	0.000000	0.000000
JCT-1416	979.750000	13.000000	0.000000	0.000000	0.000000
JCT-1418	981.200000	10.200000	0.000000	0.000000	0.000000
JCT-142	972.932000	13.500000	0.000000	0.000000	0.000000
JCT-1420	982.800000	13.100000	0.000000	0.000000	0.000000
JCT-1422	984.600000	14.200000	0.000000	0.000000	0.000000
JCT-1426	985.800000	11.500000	0.000000	0.000000	0.000000
JCT-1428	979.445999	19.700001	0.000000	0.000000	0.000000
JCT-1432	979.961999	23.200001	0.000000	0.000000	0.000000
JCT-1438	981.900000	21.100000	0.000000	0.000000	0.000000
JCT-144	969.116000	11.300000	0.000000	0.000000	0.000000
JCT-1440	981.668000	22.000000	0.000000	0.000000	0.000000
JCT-1442	981.262000	22.600000	0.000000	0.000000	0.000000
JCT-1444	980.851000	22.400000	0.000000	0.000000	0.000000
JCT-1446	980.250000	21.100000	0.000000	0.000000	0.000000
JCT-1448	980.059000	25.000000	0.000000	0.000000	0.000000
JCT-1450	979.777000	22.000000	0.000000	0.000000	0.000000
JCT-1452	996.381000	11.200000	0.000000	0.000000	0.000000
JCT-1454	999.354000	6.600000	0.000000	0.000000	0.000000
JCT-1456	1006.600000	10.900000	0.000000	0.000000	0.000000
JCT-1458	1001.800000	10.000000	0.000000	0.000000	0.000000
JCT-146	961.025000	15.600000	0.000000	0.000000	0.000000
JCT-1460	1010.300000	11.400000	0.000000	0.000000	0.000000
JCT-1462	1005.800000	11.500000	0.000000	0.000000	0.000000
JCT-1464	983.490000	17.000000	0.000000	0.000000	0.000000
JCT-1466	986.591000	18.000000	0.000000	0.000000	0.000000
JCT-1468	996.834000	10.900000	0.000000	0.000000	0.000000
JCT-1470	993.033000	13.100000	0.000000	0.000000	0.000000
JCT-1472	991.887000	13.100000	0.000000	0.000000	0.000000
JCT-1474	990.707000	13.500000	0.000000	0.000000	0.000000
JCT-1476	990.382000	14.700000	0.000000	0.000000	0.000000
JCT-1478	989.728000	19.600000	0.000000	0.000000	0.000000
; assumed invert
JCT-148	962.100000	14.700000	0.000000	0.000000	0.000000
JCT-1480	995.297000	12.100000	0.000000	0.000000	0.000000
JCT-1482	993.491000	16.900000	0.000000	0.000000	0.000000
JCT-1484	992.332000	9.000000	0.000000	0.000000	0.000000
JCT-1486	992.774000	8.400000	0.000000	0.000000	0.000000
JCT-1488	992.600000	10.400000	0.000000	0.000000	0.000000
JCT-1490	992.000000	10.000000	0.000000	0.000000	0.000000
JCT-1492	991.500000	12.000000	0.000000	0.000000	0.000000
JCT-1494	992.400000	11.500000	0.000000	0.000000	0.000000
JCT-1496	989.400000	13.000000	0.000000	0.000000	0.000000
JCT-1498	996.828000	12.400000	0.000000	0.000000	0.000000
JCT-150	962.493000	16.000000	0.000000	0.000000	0.000000
JCT-1500	994.197000	15.900000	0.000000	0.000000	0.000000
JCT-1502	996.600000	16.400000	0.000000	0.000000	0.000000
JCT-1504	1003.500000	12.000000	0.000000	0.000000	0.000000
JCT-1506	1004.300000	15.700000	0.000000	0.000000	0.000000
JCT-1508	1005.700000	15.700000	0.000000	0.000000	0.000000
JCT-1510	1008.400000	11.400000	0.000000	0.000000	0.000000
JCT-1512	1005.700000	11.000000	0.000000	0.000000	0.000000
JCT-1514	1008.300000	10.900000	0.000000	0.000000	0.000000
JCT-1516	996.400000	15.600000	0.000000	0.000000	0.000000
JCT-1518	996.338000	15.600000	0.000000	0.000000	0.000000
JCT-152	963.753000	9.600000	0.000000	0.000000	0.000000
JCT-1520	1002.600000	11.000000	0.000000	0.000000	0.000000
JCT-1522	995.875000	11.000000	0.000000	0.000000	0.000000
JCT-1524	992.614000	14.000000	0.000000	0.000000	0.000000
JCT-1526	990.275000	14.700000	0.000000	0.000000	0.000000
JCT-1528	989.088000	14.000000	0.000000	0.000000	0.000000
JCT-1530	987.984000	13.500000	0.000000	0.000000	0.000000
JCT-1532	991.990000	10.000000	0.000000	0.000000	0.000000
JCT-1534	988.000000	14.400000	0.000000	0.000000	0.000000
JCT-1536	992.939000	8.800000	0.000000	0.000000	0.000000
JCT-1538	991.479000	11.100000	0.000000	0.000000	0.000000
JCT-154	965.383000	8.600000	0.000000	0.000000	0.000000
JCT-1540	994.904000	7.000000	0.000000	0.000000	0.000000
JCT-1542	990.199000	9.000000	0.000000	0.000000	0.000000
JCT-1544	989.782000	8.000000	0.000000	0.000000	0.000000
JCT-1546	984.497000	12.900000	0.000000	0.000000	0.000000
JCT-1548	985.775000	11.600000	0.000000	0.000000	0.000000
JCT-1550	994.050000	7.000000	0.000000	0.000000	0.000000
JCT-1552	1000.309000	3.500000	0.000000	0.000000	0.000000
JCT-1554	1000.136000	4.000000	0.000000	0.000000	0.000000
JCT-1556	993.801000	10.000000	0.000000	0.000000	0.000000
JCT-1558	990.918000	13.100000	0.000000	0.000000	0.000000
JCT-156	965.662000	13.300000	0.000000	0.000000	0.000000
JCT-1560	990.720000	13.500000	0.000000	0.000000	0.000000
JCT-1562	991.146000	12.600000	0.000000	0.000000	0.000000
JCT-1564	992.473000	13.000000	0.000000	0.000000	0.000000
JCT-1566	993.691000	11.400000	0.000000	0.000000	0.000000
JCT-1568	991.680000	8.900000	0.000000	0.000000	0.000000
JCT-1570	994.532000	9.000000	0.000000	0.000000	0.000000
JCT-1572	998.638000	7.700000	0.000000	0.000000	0.000000
JCT-1574	981.764000	8.900000	0.000000	0.000000	0.000000
JCT-1576	978.470000	9.700000	0.000000	0.000000	0.000000
JCT-1578	978.010000	12.000000	0.000000	0.000000	0.000000
JCT-158	966.255001	17.299999	0.000000	0.000000	0.000000
JCT-1580	977.180000	14.500000	0.000000	0.000000	0.000000
JCT-1582	976.247000	13.100000	0.000000	0.000000	0.000000
JCT-1584	981.038000	11.100000	0.000000	0.000000	0.000000
JCT-1586	981.237000	11.300000	0.000000	0.000000	0.000000
JCT-1588	984.168000	8.300000	0.000000	0.000000	0.000000
JCT-1590	982.080000	10.000000	0.000000	0.000000	0.000000
JCT-1592	985.225000	13.500000	0.000000	0.000000	0.000000
JCT-1594	997.093000	5.100000	0.000000	0.000000	0.000000
JCT-1596	964.737000	10.000000	0.000000	0.000000	0.000000
JCT-1598	992.039000	7.000000	0.000000	0.000000	0.000000
JCT-16	963.810000	16.400000	0.000000	0.000000	0.000000
JCT-160	967.530000	20.600000	0.000000	0.000000	0.000000
JCT-1600	993.370000	7.600000	0.000000	0.000000	0.000000
JCT-1602	972.604000	10.300000	0.000000	0.000000	0.000000
JCT-1604	967.205000	14.000000	0.000000	0.000000	0.000000
JCT-1606	966.803000	13.600000	0.000000	0.000000	0.000000
JCT-1608	973.717000	11.700000	0.000000	0.000000	0.000000
JCT-1610	978.207000	9.700000	0.000000	0.000000	0.000000
JCT-1612	983.817000	9.000000	0.000000	0.000000	0.000000
JCT-1614	973.599000	11.000000	0.000000	0.000000	0.000000
JCT-1616	972.459000	8.000000	0.000000	0.000000	0.000000
JCT-1618	965.744000	12.000000	0.000000	0.000000	0.000000
JCT-162	970.290000	10.800000	0.000000	0.000000	0.000000
JCT-1620	968.672000	10.800000	0.000000	0.000000	0.000000
JCT-1622	966.697000	11.300000	0.000000	0.000000	0.000000
JCT-1624	967.101000	10.000000	0.000000	0.000000	0.000000
JCT-1626	966.326000	11.000000	0.000000	0.000000	0.000000
JCT-1628	953.100000	7.000000	0.000000	0.000000	0.000000
JCT-1630	952.846000	7.000000	0.000000	0.000000	0.000000
JCT-1632	961.006000	4.400000	0.000000	0.000000	0.000000
JCT-1634	962.684000	6.000000	0.000000	0.000000	0.000000
JCT-1636	959.228000	10.600000	0.000000	0.000000	0.000000
JCT-164	968.903000	16.400000	0.000000	0.000000	0.000000
JCT-1640	958.221000	9.700000	0.000000	0.000000	0.000000
JCT-1642	962.350000	5.000000	0.000000	0.000000	0.000000
JCT-1646	963.254000	6.300000	0.000000	0.000000	0.000000
JCT-1658	989.514000	8.700000	0.000000	0.000000	0.000000
JCT-166	967.254000	16.600000	0.000000	0.000000	0.000000
JCT-1660	978.427000	6.400000	0.000000	0.000000	0.000000
JCT-1662	961.976000	13.500000	0.000000	0.000000	0.000000
JCT-1664	978.820000	10.800000	0.000000	0.000000	0.000000
JCT-1666	960.800000	10.000000	0.000000	0.000000	0.000000
JCT-1668	959.700000	11.500000	0.000000	0.000000	0.000000
JCT-1670	957.100000	8.900000	0.000000	0.000000	0.000000
JCT-1672	993.534000	16.600000	0.000000	0.000000	0.000000
JCT-1678	990.484000	8.200000	0.000000	0.000000	0.000000
JCT-168	967.708000	15.400000	0.000000	0.000000	0.000000
JCT-1680	989.436000	9.100000	0.000000	0.000000	0.000000
JCT-1682	955.517000	11.000000	0.000000	0.000000	0.000000
JCT-1684	954.408000	13.900000	0.000000	0.000000	0.000000
JCT-1686	985.140000	10.900000	0.000000	0.000000	0.000000
JCT-1688	979.971000	12.200000	0.000000	0.000000	0.000000
JCT-1690	985.428000	10.600000	0.000000	0.000000	0.000000
JCT-1692	981.436000	10.900000	0.000000	0.000000	0.000000
JCT-1694	985.800000	11.300000	0.000000	0.000000	0.000000
JCT-1696	969.836000	13.300000	0.000000	0.000000	0.000000
JCT-1698	964.480000	8.300000	0.000000	0.000000	0.000000
JCT-170	968.366000	15.200000	0.000000	0.000000	0.000000
JCT-1706	1005.583000	9.000000	0.000000	0.000000	0.000000
JCT-1708	1010.520000	11.600000	0.000000	0.000000	0.000000
JCT-1710	1012.089000	11.600000	0.000000	0.000000	0.000000
JCT-1712	1012.470000	12.000000	0.000000	0.000000	0.000000
JCT-1714	1012.972000	13.500000	0.000000	0.000000	0.000000
JCT-172	968.616000	15.100000	0.000000	0.000000	0.000000
JCT-1720	951.300000	9.600000	0.000000	0.000000	0.000000
JCT-1730	984.142000	16.000000	0.000000	0.000000	0.000000
JCT-1732	993.627000	12.000000	0.000000	0.000000	0.000000
JCT-1734	981.102000	9.660000	0.000000	0.000000	0.000000
JCT-1736	971.245000	12.000000	0.000000	0.000000	0.000000
JCT-1738	964.000000	7.000000	0.000000	0.000000	0.000000
JCT-174	968.865000	15.800000	0.000000	0.000000	0.000000
JCT-1740	975.588000	10.900000	0.000000	0.000000	0.000000
JCT-1742	980.201000	9.500000	0.000000	0.000000	0.000000
JCT-1744	960.400000	9.500000	0.000000	0.000000	0.000000
JCT-1746	975.403000	8.860000	0.000000	0.000000	0.000000
JCT-1748	984.615000	9.000000	0.000000	0.000000	0.000000
JCT-1752	1013.214000	8.786000	0.000000	0.000000	0.000000
JCT-1754	1013.731000	11.769000	0.000000	0.000000	0.000000
JCT-1756	1014.389000	12.111000	0.000000	0.000000	0.000000
JCT-1758	1014.571000	11.929000	0.000000	0.000000	0.000000
JCT-176	969.401000	13.700000	0.000000	0.000000	0.000000
JCT-1760	1016.197000	17.803000	0.000000	0.000000	0.000000
JCT-1762	965.856000	11.144000	0.000000	0.000000	0.000000
JCT-1764	964.515000	8.485000	0.000000	0.000000	0.000000
JCT-1766	953.023000	9.000000	0.000000	0.000000	0.000000
JCT-1768	963.252000	19.748000	0.000000	0.000000	0.000000
JCT-1774	973.255000	14.682000	0.000000	0.000000	0.000000
; New Junction
JCT-1776	940.204000	13.796000	0.000000	0.000000	0.000000
; New Junction
JCT-1778	1044.143000	13.857000	0.000000	0.000000	0.000000
JCT-178	970.280000	12.300000	0.000000	0.000000	0.000000
; New Junction
JCT-1780	984.421000	6.579000	0.000000	0.000000	0.000000
; New Junction
JCT-1782	992.382000	7.618000	0.000000	0.000000	0.000000
; New Junction
JCT-1784	988.919000	9.081000	0.000000	0.000000	0.000000
; New Junction
JCT-1786	958.942000	12.058000	0.000000	0.000000	0.000000
; New Junction
JCT-1788	941.596000	10.404000	0.000000	0.000000	0.000000
; New Junction
JCT-1790	970.102000	13.898000	0.000000	0.000000	0.000000
; New Junction
JCT-1792	1002.302000	19.698000	0.000000	0.000000	0.000000
; New Junction
JCT-1794	988.093000	12.407000	0.000000	0.000000	0.000000
; New Junction
JCT-1796	976.662000	12.338000	0.000000	0.000000	0.000000
JCT-18	957.916000	13.600000	0.000000	0.000000	0.000000
JCT-180	971.011000	14.300000	0.000000	0.000000	0.000000
; New Junction
JCT-1800	989.383000	15.617000	0.000000	0.000000	0.000000
; New Junction
JCT-1802	988.901000	17.099000	0.000000	0.000000	0.000000
; New Junction
JCT-1804	1004.927000	5.573000	0.000000	0.000000	0.000000
; New Junction
JCT-1806	981.617000	10.383000	0.000000	0.000000	0.000000
; New Junction
JCT-1808	982.497000	12.503000	0.000000	0.000000	0.000000
; New Junction
JCT-1810	989.198000	7.802000	0.000000	0.000000	0.000000
; New Junction
JCT-1812	989.026000	8.974000	0.000000	0.000000	0.000000
; New Junction
JCT-1814	986.273000	12.227000	0.000000	0.000000	0.000000
; New Junction
JCT-1816	982.119000	19.881000	0.000000	0.000000	0.000000
; New Junction
JCT-1818	990.105000	12.895000	0.000000	0.000000	0.000000
JCT-182	971.812000	17.100000	0.000000	0.000000	0.000000
; New Junction
JCT-1822	971.458000	26.542000	0.000000	0.000000	0.000000
; New Junction
JCT-1824	989.794000	13.206000	0.000000	0.000000	0.000000
; New Junction
JCT-1826	992.891000	10.909000	0.000000	0.000000	0.000000
; New Junction
JCT-1828	993.171000	7.829000	0.000000	0.000000	0.000000
; New Junction
JCT-1832	960.107000	8.893000	0.000000	0.000000	0.000000
; New Junction
JCT-1834	969.104000	16.896000	0.000000	0.000000	0.000000
; New Junction
JCT-1836	978.248000	14.252000	0.000000	0.000000	0.000000
JCT-184	970.457000	20.000000	0.000000	0.000000	0.000000
; New Junction
JCT-1842	958.972000	8.528000	0.000000	0.000000	0.000000
; New Junction
JCT-1844	989.681000	14.619000	0.000000	0.000000	0.000000
; New Junction
JCT-1846	980.445000	10.555000	0.000000	0.000000	0.000000
; New Junction
JCT-1848	987.452000	14.248000	0.000000	0.000000	0.000000
; New Junction
JCT-1850	990.729000	12.271000	0.000000	0.000000	0.000000
; New Junction
JCT-1852	989.138000	22.562000	0.000000	0.000000	0.000000
; New Junction
JCT-1854	986.517000	19.483000	0.000000	0.000000	0.000000
; New Junction
JCT-1856	972.443000	8.557000	0.000000	0.000000	0.000000
; New Junction
JCT-1858	970.892000	11.308000	0.000000	0.000000	0.000000
JCT-186	968.922000	16.500000	0.000000	0.000000	0.000000
; New Junction
JCT-1860	987.072000	9.928000	0.000000	0.000000	0.000000
; New Junction
JCT-1862	980.232000	23.568000	0.000000	0.000000	0.000000
; New Junction
JCT-1864	979.191000	20.309000	0.000000	0.000000	0.000000
; New Junction
JCT-1866	979.307000	8.693000	0.000000	0.000000	0.000000
; New Junction
JCT-1870	999.590000	11.410000	0.000000	0.000000	0.000000
; New Junction
JCT-1872	991.678000	12.322000	0.000000	0.000000	0.000000
; New Junction
JCT-1874	1008.600000	11.800000	0.000000	0.000000	0.000000
; New Junction
JCT-1876	984.043000	22.257000	0.000000	0.000000	0.000000
; New Junction
JCT-1878	985.751000	18.549000	0.000000	0.000000	0.000000
JCT-188	969.929000	10.300000	0.000000	0.000000	0.000000
; New Junction
JCT-1880	988.184000	14.316000	0.000000	0.000000	0.000000
; New Junction
JCT-1882	998.839000	7.161000	0.000000	0.000000	0.000000
; New Junction
JCT-1884	992.714000	14.286000	0.000000	0.000000	0.000000
; New Junction
JCT-1886	982.240000	12.760000	0.000000	0.000000	0.000000
; New Junction
JCT-1888	1023.177000	3.823000	0.000000	0.000000	0.000000
; New Junction
JCT-1890	1001.862000	10.138000	0.000000	0.000000	0.000000
; New Junction
JCT-1892	1001.860000	13.640000	0.000000	0.000000	0.000000
; New Junction
JCT-1894	991.194000	12.806000	0.000000	0.000000	0.000000
; New Junction
JCT-1896	962.553000	5.447000	0.000000	0.000000	0.000000
; New Junction
JCT-1898	962.884000	7.116000	0.000000	0.000000	0.000000
JCT-190	967.153000	13.700000	0.000000	0.000000	0.000000
; New Junction
JCT-1900	957.300000	8.700000	0.000000	0.000000	0.000000
; New Junction
JCT-1902	957.300000	8.700000	0.000000	0.000000	0.000000
; New Junction
JCT-1904	957.300000	8.200000	0.000000	0.000000	0.000000
; New Junction
JCT-1906	967.281000	14.719000	0.000000	0.000000	0.000000
; New Junction
JCT-1908	960.940000	10.060000	0.000000	0.000000	0.000000
; New Junction
JCT-1910	961.000000	9.500000	0.000000	0.000000	0.000000
; New Junction
JCT-1912	959.810000	10.990000	0.000000	0.000000	0.000000
; New Junction
JCT-1914	977.000000	17.378000	0.000000	0.000000	0.000000
; New Junction
JCT-1916	959.096000	10.504000	0.000000	0.000000	0.000000
; New Junction
JCT-1918	978.646000	16.354000	0.000000	0.000000	0.000000
JCT-192	966.159000	13.400000	0.000000	0.000000	0.000000
; New Junction
JCT-1920	990.605000	23.895000	0.000000	0.000000	0.000000
; New Junction
JCT-1922	980.783000	15.217000	0.000000	0.000000	0.000000
; New Junction
JCT-1926	1011.022000	8.978000	0.000000	0.000000	0.000000
; New Junction
JCT-1928	1011.220000	8.780000	0.000000	0.000000	0.000000
; New Junction
JCT-1930	954.607000	12.893000	0.000000	0.000000	0.000000
; New Junction
JCT-1932	1000.236000	4.764000	0.000000	0.000000	0.000000
; New Junction
JCT-1934	996.480000	14.520000	0.000000	0.000000	0.000000
; New Junction
JCT-1936	997.000000	10.000000	0.000000	0.000000	0.000000
; New Junction
JCT-1938	991.470000	14.830000	0.000000	0.000000	0.000000
JCT-194	965.312000	13.400000	0.000000	0.000000	0.000000
; New Junction
JCT-1940	990.973000	7.527000	0.000000	0.000000	0.000000
; New Junction
JCT-1942	1016.397000	18.603000	0.000000	0.000000	0.000000
; New Junction
JCT-1944	1013.931000	13.069000	0.000000	0.000000	0.000000
; New Junction
JCT-1952	951.689000	8.315000	0.000000	0.000000	0.000000
; New Junction