[TITLE]
;;Project Title/Notes

[OPTIONS]
;;Option             Value
FLOW_UNITS           GPM
INFILTRATION         HORTON
FLOW_ROUTING         DYNWAVE
LINK_OFFSETS         DEPTH
MIN_SLOPE            0
ALLOW_PONDING        NO
SKIP_STEADY_STATE    NO

START_DATE           01/01/2002
START_TIME           00:00:00
REPORT_START_DATE    01/01/2002
REPORT_START_TIME    00:00:00
END_DATE             01/01/2002
END_TIME             23:00:00
SWEEP_START          01/01
SWEEP_END            12/31
DRY_DAYS             5.000000
REPORT_STEP          00:05:00
WET_STEP             01:00:00
DRY_STEP             23:00:00
ROUTING_STEP         0:00:30 

INERTIAL_DAMPING     NONE
NORMAL_FLOW_LIMITED  BOTH
FORCE_MAIN_EQUATION  H-W
VARIABLE_STEP        0.75
LENGTHENING_STEP     10
MIN_SURFAREA         12.557
MAX_TRIALS           8
HEAD_TOLERANCE       0.005
SYS_FLOW_TOL         5
LAT_FLOW_TOL         5
MINIMUM_STEP         0
THREADS              1

[EVAPORATION]
;;Data Source    Parameters
;;-------------- ----------------
CONSTANT         0.0
DRY_ONLY         NO

[JUNCTIONS]
;;Name           Elevation  MaxDepth   InitDepth  SurDepth   Aponded   
;;-------------- ---------- ---------- ---------- ---------- ----------
AC068202         149.788000 6.406885   0.000000   0.000000   0.000000  
AC068402         148.928000 5.655923   0.000000   0.000000   0.000000  
SW068401         147.054000 5.140885   0.000000   0.000000   0.000000  
SW068402         147.964000 5.230870   0.000000   0.000000   0.000000  
SW068403         148.544000 4.876609   0.000000   0.000000   0.000000  
SW068404         149.104000 6.610203   0.000000   0.000000   0.000000  
SW068405         151.138000 4.238816   0.000000   0.000000   0.000000  
SW068406         149.834000 8.360885   0.000000   0.000000   0.000000  
SW068407         150.818000 5.376885   0.000000   0.000000   0.000000  
SW068408         151.608000 6.586885   0.000000   0.000000   0.000000  
SW068409         149.418000 6.776885   0.000000   0.000000   0.000000  
SW068410         150.068000 7.126870   0.000000   0.000000   0.000000  
SW068411         150.488000 7.706885   0.000000   0.000000   0.000000  
SW068412         150.888000 7.434449   0.000000   0.000000   0.000000  

[OUTFALLS]
;;Name           Elevation  Type       Stage Data       Gated    Route To        
;;-------------- ---------- ---------- ---------------- -------- ----------------
AC068201         148.488000 FREE                        NO                       
AC068301         145.944000 FREE                        NO                       

[CONDUITS]
;;Name           From Node        To Node          Length     Roughness  InOffset   OutOffset  InitFlow   MaxFlow   
;;-------------- ---------------- ---------------- ---------- ---------- ---------- ---------- ---------- ----------
AC068202-AC068402 AC068202         AC068402         350.636120 0.015000   0.000000   0.000000   0.000000   0.000000  
AC068402-AC068201 AC068402         AC068201         270.647793 0.015000   0.000000   0.000000   0.000000   0.000000  
SW068401-AC068301 SW068401         AC068301         324.242653 0.015000   0.000000   0.000000   0.000000   0.000000  
SW068402-SW068401 SW068402         SW068401         333.618357 0.015000   0.000000   0.000000   0.000000   0.000000  
SW068403-SW068402 SW068403         SW068402         203.299768 0.015000   0.000000   0.000000   0.000000   0.000000  
SW068404-SW068403 SW068404         SW068403         195.963568 0.015000   0.000000   0.000000   0.000000   0.000000  
SW068405-SW068407 SW068405         SW068407         169.068460 0.015000   0.000000   0.000000   0.000000   0.000000  
SW068406-SW068404 SW068406         SW068404         195.224545 0.015000   0.000000   0.000000   0.000000   0.000000  
SW068407-SW068410 SW068407         SW068410         268.838190 0.015000   0.020000   0.200000   0.000000   0.000000  
SW068408-SW068412 SW068408         SW068412         256.185127 0.015000   0.000000   0.200000   0.000000   0.000000  
SW068409-AC068402 SW068409         AC068402         333.672159 0.015000   0.000000   0.000000   0.000000   0.000000  
SW068410-SW068409 SW068410         SW068409         324.365704 0.015000   0.000000   0.000000   0.000000   0.000000  
SW068411-SW068410 SW068411         SW068410         211.284934 0.015000   0.000000   0.000000   0.000000   0.000000  
SW068412-SW068411 SW068412         SW068411         193.294945 0.015000   0.000000   0.000000   0.000000   0.000000  
1                SW068408         SW068406         400        0.01       0          0          0          0         

[XSECTIONS]
;;Link           Shape        Geom1            Geom2      Geom3      Geom4      Barrels    Culvert   
;;-------------- ------------ ---------------- ---------- ---------- ---------- ---------- ----------
AC068202-AC068402 CIRCULAR     0.666667         0.000000   0.000000   0.000000   1          0         
AC068402-AC068201 CIRCULAR     0.666667         0.000000   0.000000   0.000000   1          0         
SW068401-AC068301 CIRCULAR     0.666667         0.000000   0.000000   0.000000   1          0         
SW068402-SW068401 CIRCULAR     0.666667         0.000000   0.000000   0.000000   1          0         
SW068403-SW068402 CIRCULAR     0.666667         0.000000   0.000000   0.000000   1          0         
SW068404-SW068403 CIRCULAR     0.666667         0.000000   0.000000   0.000000   1          0         
SW068405-SW068407 CIRCULAR     0.666667         0.000000   0.000000   0.000000   1          0         
SW068406-SW068404 CIRCULAR     0.666667         0.000000   0.000000   0.000000   1          0         
SW068407-SW068410 CIRCULAR     0.666667         0.000000   0.000000   0.000000   1          0         
SW068408-SW068412 CIRCULAR     0.666667         0.000000   0.000000   0.000000   1          0         
SW068409-AC068402 CIRCULAR     0.666667         0.000000   0.000000   0.000000   1          0         
SW068410-SW068409 CIRCULAR     0.666667         0.000000   0.000000   0.000000   1          0         
SW068411-SW068410 CIRCULAR     0.666667         0.000000   0.000000   0.000000   1          0         
SW068412-SW068411 CIRCULAR     0.666667         0.000000   0.000000   0.000000   1          0         
1                CIRCULAR     1                0          0          0          1                    

[LOSSES]
;;Link           Kentry     Kexit      Kavg       Flap Gate  Seepage   
;;-------------- ---------- ---------- ---------- ---------- ----------
AC068202-AC068402 0.000000   0.000000   0.000000   NO         0.000000  
AC068402-AC068201 0.000000   0.000000   0.000000   NO         0.000000  
SW068401-AC068301 0.000000   0.000000   0.000000   NO         0.000000  
SW068402-SW068401 0.000000   0.000000   0.000000   NO         0.000000  
SW068403-SW068402 0.000000   0.000000   0.000000   NO         0.000000  
SW068404-SW068403 0.000000   0.000000   0.000000   NO         0.000000  
SW068405-SW068407 0.000000   0.000000   0.000000   NO         0.000000  
SW068406-SW068404 0.000000   0.000000   0.000000   NO         0.000000  
SW068407-SW068410 0.000000   0.000000   0.000000   NO         0.000000  
SW068408-SW068412 0.000000   0.000000   0.000000   NO         0.000000  
SW068409-AC068402 0.000000   0.000000   0.000000   NO         0.000000  
SW068410-SW068409 0.000000   0.000000   0.000000   NO         0.000000  
SW068411-SW068410 0.000000   0.000000   0.000000   NO         0.000000  
SW068412-SW068411 0.000000   0.000000   0.000000   NO         0.000000  

[CONTROLS]


[INFLOWS]
;;Node           Constituent      Time Series      Type     Mfactor  Sfactor  Baseline Pattern
;;-------------- ---------------- ---------------- -------- -------- -------- -------- --------
SW068405         FLOW             ""               FLOW     1.0      1.0      1       

[DWF]
;;Node           Constituent      Baseline   Patterns  
;;-------------- ---------------- ---------- ----------
AC068202         FLOW             1.986259   "NON_RESIDENTIAL_LOAD" "" ""
SW068401         FLOW             4.476525   "NON_RESIDENTIAL_LOAD" "" ""
SW068405         FLOW             2          "RESIDENTIAL_LOAD" "" ""
SW068406         FLOW             2          "NON_RESIDENTIAL_LOAD" "" ""
SW068407         FLOW             2.812795   "NON_RESIDENTIAL_LOAD" "" ""
SW068408         FLOW             15.153395  "NON_RESIDENTIAL_LOAD" "" ""
SW068410         FLOW             0.642713   "NON_RESIDENTIAL_LOAD" "" ""
SW068411         FLOW             0.172917   "RESIDENTIAL_LOAD" "" ""
SW068412         FLOW             1.150849   "NON_RESIDENTIAL_LOAD" "" ""

[CURVES]
;;Name           Type       X-Value    Y-Value   
;;-------------- ---------- ---------- ----------
OT057444_DIVERSION DIVERSION  0.000000   0.000000  
OT057444_DIVERSION            44883.100000 44883.100000
OT057444_DIVERSION            89766.200000 89766.200000
OT057444_DIVERSION            134649.300000 134649.300000
OT057444_DIVERSION            179532.400000 179532.400000
OT057444_DIVERSION            224415.500000 224415.500000
OT057444_DIVERSION            269298.600000 269298.600000
OT057444_DIVERSION            314181.700000 314181.700000
OT057444_DIVERSION            359064.800000 359064.800000
OT057444_DIVERSION            403947.900000 403947.900000
;
OT065317_DIVERSION DIVERSION  0.000000   0.000000  
OT065317_DIVERSION            44883.100000 26929.860000
OT065317_DIVERSION            89766.200000 53859.720000
OT065317_DIVERSION            134649.300000 80789.580000
OT065317_DIVERSION            179532.400000 107719.440000
OT065317_DIVERSION            224415.500000 134649.300000
OT065317_DIVERSION            269298.600000 161579.160000
OT065317_DIVERSION            314181.700000 188509.020000
OT065317_DIVERSION            359064.800000 215438.880000
OT065317_DIVERSION            403947.900000 242368.740000
;
SW064426_DIVERSION DIVERSION  0.000000   0.000000  
SW064426_DIVERSION            44883.100000 0.000000  
SW064426_DIVERSION            89766.200000 0.000000  
SW064426_DIVERSION            134649.300000 0.000000  
SW064426_DIVERSION            179532.400000 0.000000  
SW064426_DIVERSION            224415.500000 0.000000  
SW064426_DIVERSION            269298.600000 0.000000  
SW064426_DIVERSION            314181.700000 0.000000  
SW064426_DIVERSION            359064.800000 0.000000  
SW064426_DIVERSION            403947.900000 0.000000  
;
SW066417_DIVERSION DIVERSION  0.000000   0.000000  
SW066417_DIVERSION            44883.100000 0.000000  
SW066417_DIVERSION            89766.200000 0.000000  
SW066417_DIVERSION            134649.300000 0.000000  
SW066417_DIVERSION            179532.400000 0.000000  
SW066417_DIVERSION            224415.500000 0.000000  
SW066417_DIVERSION            269298.600000 0.000000  
SW066417_DIVERSION            314181.700000 0.000000  
SW066417_DIVERSION            359064.800000 0.000000  
SW066417_DIVERSION            403947.900000 0.000000  
;
SW076424_DIVERSION DIVERSION  0.000000   0.000000  
SW076424_DIVERSION            44883.100000 44883.100000
SW076424_DIVERSION            89766.200000 89766.200000
SW076424_DIVERSION            134649.300000 134649.300000
SW076424_DIVERSION            179532.400000 179532.400000
SW076424_DIVERSION            224415.500000 224415.500000
SW076424_DIVERSION            269298.600000 269298.600000
SW076424_DIVERSION            314181.700000 314181.700000
SW076424_DIVERSION            359064.800000 359064.800000
SW076424_DIVERSION            403947.900000 403947.900000
;
SW084327_DIVERSION DIVERSION  0.000000   0.000000  
SW084327_DIVERSION            44883.100000 44883.100000
SW084327_DIVERSION            89766.200000 89766.200000
SW084327_DIVERSION            134649.300000 134649.300000
SW084327_DIVERSION            179532.400000 179532.400000
SW084327_DIVERSION            224415.500000 224415.500000
SW084327_DIVERSION            269298.600000 269298.600000
SW084327_DIVERSION            314181.700000 314181.700000
SW084327_DIVERSION            359064.800000 359064.800000
SW084327_DIVERSION            403947.900000 403947.900000
;
SW084328_DIVERSION DIVERSION  0.000000   0.000000  
SW084328_DIVERSION            44883.100000 22441.550000
SW084328_DIVERSION            89766.200000 44883.100000
SW084328_DIVERSION            134649.300000 67324.650000
SW084328_DIVERSION            179532.400000 89766.200000
SW084328_DIVERSION            224415.500000 112207.750000
SW084328_DIVERSION            269298.600000 134649.300000
SW084328_DIVERSION            314181.700000 157090.850000
SW084328_DIVERSION            359064.800000 179532.400000
SW084328_DIVERSION            403947.900000 201973.950000
;
SW084428_DIVERSION DIVERSION  0.000000   0.000000  
SW084428_DIVERSION            44883.100000 0.000000  
SW084428_DIVERSION            89766.200000 0.000000  
SW084428_DIVERSION            134649.300000 0.000000  
SW084428_DIVERSION            179532.400000 0.000000  
SW084428_DIVERSION            224415.500000 0.000000  
SW084428_DIVERSION            269298.600000 0.000000  
SW084428_DIVERSION            314181.700000 0.000000  
SW084428_DIVERSION            359064.800000 0.000000  
SW084428_DIVERSION            403947.900000 0.000000  
;
SW085134_DIVERSION DIVERSION  0.000000   0.000000  
SW085134_DIVERSION            44883.100000 17953.240000
SW085134_DIVERSION            89766.200000 35906.480000
SW085134_DIVERSION            134649.300000 53859.720000
SW085134_DIVERSION            179532.400000 71812.960000
SW085134_DIVERSION            224415.500000 89766.200000
SW085134_DIVERSION            269298.600000 107719.440000
SW085134_DIVERSION            314181.700000 125672.680000
SW085134_DIVERSION            359064.800000 143625.920000
SW085134_DIVERSION            403947.900000 161579.160000
;
SW085138_DIVERSION DIVERSION  0.000000   0.000000  
SW085138_DIVERSION            44883.100000 17953.240000
SW085138_DIVERSION            89766.200000 35906.480000
SW085138_DIVERSION            134649.300000 53859.720000
SW085138_DIVERSION            179532.400000 71812.960000
SW085138_DIVERSION            224415.500000 89766.200000
SW085138_DIVERSION            269298.600000 107719.440000
SW085138_DIVERSION            314181.700000 125672.680000
SW085138_DIVERSION            359064.800000 143625.920000
SW085138_DIVERSION            403947.900000 161579.160000
;
SW094222_DIVERSION DIVERSION  0.000000   0.000000  
SW094222_DIVERSION            44883.100000 11220.775000
SW094222_DIVERSION            89766.200000 22441.550000
SW094222_DIVERSION            134649.300000 33662.325000
SW094222_DIVERSION            179532.400000 44883.100000
SW094222_DIVERSION            224415.500000 56103.875000
SW094222_DIVERSION            269298.600000 67324.650000
SW094222_DIVERSION            314181.700000 78545.425000
SW094222_DIVERSION            359064.800000 89766.200000
SW094222_DIVERSION            403947.900000 100986.975000

[PATTERNS]
;;Name           Type       Multipliers
;;-------------- ---------- -----------
DISNEYLAND_LOAD  HOURLY     0.500000 0.450000 0.400000 0.300000 0.350000 0.500000
DISNEYLAND_LOAD             1.400000 1.600000 1.500000 1.400000 1.300000 1.150000
DISNEYLAND_LOAD             1.000000 1.100000 1.150000 1.350000 1.600000 1.450000
DISNEYLAND_LOAD             0.850000 0.950000 1.100000 1.000000 0.840000 0.660000
;
NON_RESIDENTIAL_LOAD HOURLY     0.500000 0.450000 0.400000 0.300000 0.350000 0.500000
NON_RESIDENTIAL_LOAD            1.400000 1.600000 1.500000 1.400000 1.300000 1.150000
NON_RESIDENTIAL_LOAD            1.000000 1.100000 1.150000 1.350000 1.600000 1.450000
NON_RESIDENTIAL_LOAD            0.850000 0.950000 1.100000 1.000000 0.840000 0.660000
;
RESIDENTIAL_LOAD HOURLY     0.300000 0.150000 0.100000 0.150000 0.250000 1.000000
RESIDENTIAL_LOAD            2.400000 2.500000 2.000000 1.500000 1.000000 0.600000
RESIDENTIAL_LOAD            0.400000 0.250000 0.200000 0.300000 0.600000 1.000000
RESIDENTIAL_LOAD            1.300000 2.300000 2.500000 1.300000 1.000000 0.900000

[REPORT]
;;Reporting Options
INPUT      NO
CONTROLS   NO
SUBCATCHMENTS ALL
NODES ALL
LINKS ALL

[TAGS]

[MAP]
DIMENSIONS 6054689.424 2260584.986 6055878.454 2261577.127
Units      None

[COORDINATES]
;;Node           X-Coord            Y-Coord           
;;-------------- ------------------ ------------------
AC068202         6054743.471        2260630.083       
AC068402         6054745.435        2260980.714       
SW068401         6055076.656        2261529.008       
SW068402         6055410.251        2261525.072       
SW068403         6055613.541        2261523.140       
SW068404         6055809.269        2261513.520       
SW068405         6055409.364        2261411.008       
SW068406         6055824.407        2261318.883       
SW068407         6055408.017        2261241.945       
SW068408         6055823.179        2261240.686       
SW068409         6055079.082        2260976.642       
SW068410         6055403.429        2260973.146       
SW068411         6055614.703        2260971.031       
SW068412         6055807.494        2260984.982       
AC068201         6054754.326        2261251.216       
AC068301         6054752.427        2261532.030       

[VERTICES]
;;Link           X-Coord            Y-Coord           
;;-------------- ------------------ ------------------

