[TITLE]
;;Project Title/Notes

[OPTIONS]
;;Option             Value
FLOW_UNITS           LPS
INFILTRATION         HORTON
FLOW_ROUTING         DYNWAVE
LINK_OFFSETS         DEPTH
MIN_SLOPE            0
ALLOW_PONDING        NO
SKIP_STEADY_STATE    NO

START_DATE           12/13/2015
START_TIME           00:00:00
REPORT_START_DATE    12/13/2015
REPORT_START_TIME    00:00:00
END_DATE             12/15/2015
END_TIME             23:59:00
SWEEP_START          01/01
SWEEP_END            12/31
DRY_DAYS             0
REPORT_STEP          00:15:00
WET_STEP             00:15:00
DRY_STEP             01:00:00
ROUTING_STEP         0:00:01 

INERTIAL_DAMPING     FULL
NORMAL_FLOW_LIMITED  BOTH
FORCE_MAIN_EQUATION  D-W
VARIABLE_STEP        0.75
LENGTHENING_STEP     0
MIN_SURFAREA         1.14
MAX_TRIALS           8
HEAD_TOLERANCE       0.0015
SYS_FLOW_TOL         5
LAT_FLOW_TOL         5
MINIMUM_STEP         0.5
THREADS              1

[FILES]
;;Interfacing Files
SAVE HOTSTART "D:\2013-2016Desktop\Summer 2015\hanoi.hsf"

[EVAPORATION]
;;Data Source    Parameters
;;-------------- ----------------
CONSTANT         0.0
DRY_ONLY         NO

[JUNCTIONS]
;;Name           Elevation  MaxDepth   InitDepth  SurDepth   Aponded   
;;-------------- ---------- ---------- ---------- ---------- ----------
A6               3.57       3          0.5        0          100       
A7               3.56       3          0.5        0          100       
A8               3.55       3          0.5        0          100       
A9               3.54       3          0.5        0          100       
A10              3.53       3          0.5        0          100       
A11              3.54       3          0.5        0          100       
A12              3.48       3          0.5        0          100       
A13              3.47       3          0.5        0          100       
A14              3.47       3          0.5        0          100       
A15              3.46       3          0.5        0          100       
A16              3.42       3          0.5        0          100       
A17              3.42       3          0.5        0          100       
A18              3.41       3          0.5        0          100       
A19              3.40       3          0.5        0          100       
A20              3.39       3          0.5        0          100       
A21              3.2        3          0.5        0          100       
A22              3.03       3          0.5        0          100       
A23              3.01       3          0.5        0          100       
A24              3.01       3          0.5        0          100       
A25              2.92       3          0.5        0          100       
A26              2.91       2.9        0.5        0          100       
A27              2.9        3          0.5        0          100       
A28              2.9        3          0.5        0          100       
A29              2.88       4.0        0.5        0          100       
A30              2.88       3          0.5        0          100       
A31              2.8        3          0.5        0          100       
A32              2.75       3.5        0.5        0          100       
B1               3.13       2.0        0.5        0          100       
B2               3.099      3          0.5        0          100       
B3               3.074      3          0.5        0          100       
B4               3.062      3          0.5        0          100       
B5               3.057      3          0.5        0          100       
B6               3.05       3          0.5        0          100       
B7               2.9        3          0.5        0          100       
B8               2.73       3          0.5        0          100       
B9               2.626      3          0.5        0          100       
B10              2.6        3          0.5        0          100       
B11              2.53       3          0.5        0          100       
B12              2.48       3          0.5        0          100       
B13              2.15       3          0.5        0          100       
B14              2.07       3          0.5        0          100       
B15              1.98       3          0.5        0          100       
B16              1.927      3          0.5        0          100       
B17              1.86       3          0.5        0          100       
B18              1.811      3          0.5        0          100       
B19              1.8        3          0.5        0          100       
B20              1.783      3          0.5        0          100       
B21              1.76       3          0.5        0          100       
B22              1.746      3          0.5        0          100       
B23              1.724      4.0        0.5        0          100       
B24              1.373      3          0.5        0          100       
B25              1.338      3          0.5        0          100       
B26              1.322      3          0.5        0          100       
B27              1.307      3          0.5        0          100       
B28              1.3        3          0.5        0          100       
B29              1.281      3          0.5        0          100       
B30              1.273      3          0.5        0          100       
B31              1.268      3          0.5        0          100       
B32              1.26       3          0.5        0          100       
B33              1.255      3          0.5        0          100       
B34              1.25       3          0.5        0          100       
B35              1.223      4.0        0.5        0          100       
B36              1.217      3          0.5        0          100       
B37              1.19       3          0.5        0          100       
B38              1.18       3          0.5        0          100       
B39              1.159      4.0        0.5        0          100       
B40              1.15       3          0.5        0          100       
B41              1.0933     3          0.5        0          100       
B42              1.02       3          0.5        0          100       
B43              0.99       3          0.5        0          100       
B44              0.9776     3          0.5        0          100       
B45              0.92       3          0.5        0          100       
B46              0.8878     3          0.5        0          100       
B47              0.8512     3          0.5        0          100       
C1               3.19       3.8        0.5        0          100       
C2               3.18       3          0.5        0          100       
C3               3.17       3          0.5        0          100       
C4               3.16       3          0.5        0          100       
C5               3.15       3          0.5        0          100       
D1               3.54       3          0.5        0          100       
D2               3.51       3          0.5        0          100       
D3               3.43       3          0.5        0          100       
D4               3.37       3          0.5        0          100       
D5               3.36       3          0.5        0          100       
D6               3.35       3          0.5        0          100       
D7               3.32       3          0.5        0          100       
D8               3.32       3          0.5        0          100       
D9               3.31       3          0.5        0          100       
D10              3.31       3          0.5        0          100       
D11              2.95       3          0.5        0          100       
H5               2.6        3.5        0.5        0          100       
H6               9.75       4          0.5        0          100       
H7               9.73       4          0.5        0          100       
H4               2.7        3          0.5        0          100       

[OUTFALLS]
;;Name           Elevation  Type       Stage Data       Gated    Route To        
;;-------------- ---------- ---------- ---------------- -------- ----------------
CuaXa1           9.72       TIMESERIES Mucnuoc5ngaymax10%2050 NO                       

[CONDUITS]
;;Name           From Node        To Node          Length     Roughness  InOffset   OutOffset  InitFlow   MaxFlow   
;;-------------- ---------------- ---------------- ---------- ---------- ---------- ---------- ---------- ----------
dA6              A7               A8               250        0.025      0          0          0          0         
dA7              A8               A9               184        0.025      0          0          0          0         
dA8              A10              A11              352        0.025      0          0          0          0         
dA9              A11              A12              115        0.025      0          0          0          0         
dA10             A12              A13              215        0.025      0          0          0          0         
dA11             A14              A15              207        0.025      0          0          0          0         
dA12             A15              A16              450        0.025      0          0          0          0         
dA13             A17              A18              263        0.025      0          0          0          0         
dA14             A18              A19              267        0.025      0          0          0          0         
dA15             A20              A21              292        0.025      0          0          0          0         
dA16             A21              A22              100        0.025      0          0          0          0         
dA17             A22              A23              156        0.025      0          0          0          0         
dA18             A24              A25              127        0.025      0          0          0          0         
dA19             A25              A26              245        0.025      0          0          0          0         
dA20             A26              A27              182        0.025      0          0          0          0         
dA21             A28              A29              222        0.025      0          0          0          0         
dA22             A30              A31              236        0.025      0          0          0          0         
dA23             A31              A32              163        0.025      0          0          0          0         
dB1              B2               B3               248        0.025      0          0          0          0         
dB2              B3               B4               115        0.025      0          0          0          0         
dB3              B4               B5               123        0.025      0          0          0          0         
dB4              B6               B7               393        0.025      0          0          0          0         
dB5              B8               B9               392        0.025      0          0          0          0         
dB6              B10              B11              275        0.025      0          0          0          0         
dB7              B12              B13              397        0.025      0          0          0          0         
dB8              B13              B14              253        0.025      0          0          0          0         
dB9              B15              B16              419        0.025      0          0          0          0         
dB10             B17              B18              159        0.025      0          0          0          0         
dB11             B18              B19              269        0.025      0          0          0          0         
dB12             B20              B21              225        0.025      0          0          0          0         
dB13             B22              B23              226        0.025      0          0          0          0         
dB14             B24              B25              250        0.025      0          0          0          0         
dB15             B25              B26              161        0.025      0          0          0          0         
dB16             B26              B27              147        0.025      0          0          0          0         
dB17             B28              B29              204        0.025      0          0          0          0         
dB18             B29              B30              190        0.025      0          0          0          0         
dB19             B31              B32              260        0.025      0          0          0          0         
dB20             B32              B33              210        0.025      0          0          0          0         
dB21             B34              B35              270        0.025      0          0          0          0         
dB22             B36              B37              175        0.025      0          0          0          0         
dB23             B37              B38              104        0.025      0          0          0          0         
dB24             B38              B39              206        0.025      0          0          0          0         
dB25             B40              B41              567        0.025      0          0          0          0         
dB26             B42              B43              227        0.025      0          0          0          0         
dB27             B43              B44              124        0.02       0          0          0          0         
dB28             B45              B46              322        0.025      0          0          0          0         
dB29             B46              B47              366        0.025      0          0          0          0         
dB30             B47              A22              69         0.025      0          0          0          0         
dC1              C1               C2               489        0.025      0          0          0          0         
dC2              C2               C3               186        0.025      0          0          0          0         
dC3              C4               C5               348        0.025      0          0          0          0         
dC4              C5               B43              240        0.025      0          0          0          0         
dD1              D1               D2               134        0.025      0          0          0          0         
dD2              D3               D4               239        0.025      0          0          0          0         
dD3              D5               D6               268        0.025      0          0          0          0         
dD4              D6               D7               510        0.025      0          0          0          0         
dD5              D8               D9               233        0.025      0          0          0          0         
dD6              D10              D11              140        0.025      0          0          0          0         
dH4              H6               H7               80         0.014      0          0          0          0         
dH6              H7               CuaXa1           480        0.014      0          0          0          0         
dH7              D11              H4               400        0.025      0          0          1          0         
dA24             A32              H4               200        0.025      0          0          0          0         
dH1              H4               H5               789.9      0.015      0          0          0          0         

[PUMPS]
;;Name           From Node        To Node          Pump Curve       Status   Sartup Shutoff 
;;-------------- ---------------- ---------------- ---------------- ------ -------- --------
DM8              H5               H6               HL4850_6         ON       0        0       
DM1              H5               H6               HL4850_6         ON       0        0       
DM2              H5               H6               HL4850_6         ON       0        0       
DM3              H5               H6               HL4850_6         ON       0        0       
DM4              H5               H6               HL4850_6         ON       0        0       
DM5              H5               H6               HL4850_6         ON       0        0       
DM6              H5               H6               HL4850_6         ON       0        0       
DM7              H5               H6               HL4850_6         ON       0        0       

[ORIFICES]
;;Name           From Node        To Node          Type         Offset     Qcoeff     Gated    CloseTime 
;;-------------- ---------------- ---------------- ------------ ---------- ---------- -------- ----------
DongTri          A6               A7               SIDE         0          1.8        NO       0         
OngTac           A9               A10              SIDE         0          1.8        NO       0         
DauLangVet       A13              A14              SIDE         0          1.8        NO       0         
CuoiLangVet      A16              A17              SIDE         0          1.8        NO       0         
DongTrach1       A19              A20              SIDE         0          1.8        NO       0         
DongTrach2       A23              A24              SIDE         0          1.8        NO       0         
DongTrach3       A27              A28              SIDE         0          1.8        NO       0         
DongTrach4       A29              A30              SIDE         0          1.5        NO       0         
NganHang         B1               B2               SIDE         0          1.8        NO       0         
PhanLan          B5               B6               SIDE         0          1.8        NO       0         
Duong70          B7               B8               SIDE         0          1.8        NO       0         
CauDanh          B9               B10              SIDE         0          1.8        NO       0         
Xom4             B11              B12              SIDE         0          1.8        NO       0         
VinhQuynh        B14              B15              SIDE         0          0.65       NO       0         
IchVinh          B16              B17              SIDE         0          1.8        NO       0         
DauLangOM        B19              B20              SIDE         0          1.8        NO       0         
CuoiLangOM       B21              B22              SIDE         0          1.8        NO       0         
20               B23              B24              SIDE         0          0.65       NO       0         
GanTBNgocHoi     B27              B28              SIDE         0          1.85       NO       0         
CauNgocHoi       B30              B31              SIDE         0          1.8        NO       0         
CongNgocHoi      B33              B34              SIDE         0          1.8        NO       0         
CauVuot1         B35              B36              SIDE         0          0.65       NO       0         
CauVuot2         B39              B40              SIDE         0          1.8        NO       0         
LienNinh1        B41              B42              SIDE         0          1.8        NO       0         
LienNinh2        C3               C4               SIDE         0          1.8        NO       0         
CauDo            B44              B45              SIDE         0          1.8        NO       0         
CongChua         D2               D3               SIDE         0          1.8        NO       0         
OngTru2          D4               D5               SIDE         0          1.8        NO       0         
OngTru1          D7               D8               SIDE         0          1.8        NO       0         
BacHa            D9               D10              SIDE         0          1.8        NO       0         

[XSECTIONS]
;;Link           Shape        Geom1            Geom2      Geom3      Geom4      Barrels    Culvert   
;;-------------- ------------ ---------------- ---------- ---------- ---------- ---------- ----------
dA6              TRAPEZOIDAL  3                15         1.5        1.5        1                    
dA7              TRAPEZOIDAL  3                15         1.5        1.5        1                    
dA8              TRAPEZOIDAL  3                15         1.5        1.5        1                    
dA9              TRAPEZOIDAL  3                15         1.5        1.5        1                    
dA10             TRAPEZOIDAL  3                15         1.5        1.5        1                    
dA11             TRAPEZOIDAL  3                15         1.5        1.5        1                    
dA12             TRAPEZOIDAL  3                15         1.5        1.5        1                    
dA13             TRAPEZOIDAL  3                15         1.5        1.5        1                    
dA14             TRAPEZOIDAL  3                15         1.5        1.5        1                    
dA15             TRAPEZOIDAL  3                15         1.5        1.5        1                    
dA16             TRAPEZOIDAL  3                15         1.5        1.5        1                    
dA17             TRAPEZOIDAL  2.8              15         1.5        1.5        1                    
dA18             TRAPEZOIDAL  2.8              15         1.5        1.5        1                    
dA19             TRAPEZOIDAL  2.8              15         1.5        1.5        1                    
dA20             TRAPEZOIDAL  2.8              15         1.5        1.5        1                    
dA21             TRAPEZOIDAL  2.8              15         1.5        1.5        1                    
dA22             TRAPEZOIDAL  3                15         1.5        1.5        1                    
dA23             TRAPEZOIDAL  3                15         1.5        1.5        1                    
dB1              TRAPEZOIDAL  2.80             15         1.5        1.5        1                    
dB2              TRAPEZOIDAL  2.80             15         1.5        1.5        1                    
dB3              TRAPEZOIDAL  2.8              15         1.5        1.5        1                    
dB4              TRAPEZOIDAL  2.8              15         1.5        1.5        1                    
dB5              TRAPEZOIDAL  2.8              15         1.5        1.5        1                    
dB6              TRAPEZOIDAL  2.8              15         1.5        1.5        1                    
dB7              TRAPEZOIDAL  2.8              15         1.5        1.5        1                    
dB8              TRAPEZOIDAL  2.8              15         1.5        1.5        1                    
dB9              TRAPEZOIDAL  2.8              15         1.5        1.5        1                    
dB10             TRAPEZOIDAL  2.8              15         1.5        1.5        1                    
dB11             TRAPEZOIDAL  2.8              15         1.5        1.5        1                    
dB12             TRAPEZOIDAL  2.8              15         1.5        1.5        1                    
dB13             TRAPEZOIDAL  2.8              15         1.5        1.5        1                    
dB14             TRAPEZOIDAL  2.8              15         1.5        1.5        1                    
dB15             TRAPEZOIDAL  2.8              15         1.5        1.5        1                    
dB16             TRAPEZOIDAL  2.8              15         1.5        1.5        1                    
dB17             TRAPEZOIDAL  2.8              15         1.5        1.5        1                    
dB18             TRAPEZOIDAL  2.8              15         1.5        1.5        1                    
dB19             TRAPEZOIDAL  2.8              15         1.5        1.5        1                    
dB20             TRAPEZOIDAL  2.8              15         1.5        1.5        1                    
dB21             TRAPEZOIDAL  2.8              15         1.5        1.5        1                    
dB22             TRAPEZOIDAL  2.8              15         1.5        1.5        1                    
dB23             TRAPEZOIDAL  2.8              15         1.5        1.5        1                    
dB24             TRAPEZOIDAL  2.8              15         1.5        1.5        1                    
dB25             TRAPEZOIDAL  2.8              15         1.5        1.5        1                    
dB26             TRAPEZOIDAL  2.8              15         1.5        1.5        1                    
dB27             TRAPEZOIDAL  2.8              15         1.5        1.5        1                    
dB28             TRAPEZOIDAL  2.8              15         1.5        1.5        1                    
dB29             TRAPEZOIDAL  2.8              15         1.5        1.5        1                    
dB30             TRAPEZOIDAL  2.8              15         1.5        1.5        1                    
dC1              IRREGULAR    C5               0          0          0          1                    
dC2              IRREGULAR    C7               0          0          0          1                    
dC3              IRREGULAR    C10              0          0          0          1                    
dC4              IRREGULAR    C12              0          0          0          1                    
dD1              TRAPEZOIDAL  3                15         1.5        1.5        1                    
dD2              TRAPEZOIDAL  3                15         1.5        1.5        1                    
dD3              TRAPEZOIDAL  3                15         1.5        1.5        1                    
dD4              TRAPEZOIDAL  3                15         1.5        1.5        1                    
dD5              TRAPEZOIDAL  3                15         1.5        1.5        1                    
dD6              TRAPEZOIDAL  3                15         1.5        1.5        1                    
dH4              RECT_OPEN    4                18.20      0          0          1                    
dH6              RECT_OPEN    4                10         0          0          1                    
dH7              TRAPEZOIDAL  3                15         1.5        1.5        1                    
dA24             TRAPEZOIDAL  3                15         1.5        1.5        1                    
dH1              RECT_OPEN    3                32.23      0          0          1                    
DongTri          RECT_CLOSED  2                3          0          0
OngTac           RECT_CLOSED  2                3          0          0
DauLangVet       RECT_CLOSED  2                2          0          0
CuoiLangVet      RECT_CLOSED  2                2          0          0
DongTrach1       RECT_CLOSED  2                2          0          0
DongTrach2       RECT_CLOSED  3                2          0          0
DongTrach3       RECT_CLOSED  3                2          0          0
DongTrach4       RECT_CLOSED  4                2          0          0
NganHang         RECT_CLOSED  2                3          0          0
PhanLan          RECT_CLOSED  2                3          0          0
Duong70          RECT_CLOSED  2                3          0          0
CauDanh          RECT_CLOSED  2                3          0          0
Xom4             RECT_CLOSED  2                3          0          0
VinhQuynh        RECT_CLOSED  2                3          0          0
IchVinh          RECT_CLOSED  2                3          0          0
DauLangOM        RECT_CLOSED  3                2          0          0
CuoiLangOM       RECT_CLOSED  3                2          0          0
20               RECT_CLOSED  4                3          0          0
GanTBNgocHoi     RECT_CLOSED  2                3          0          0
CauNgocHoi       RECT_CLOSED  2                3          0          0
CongNgocHoi      RECT_CLOSED  3                2          0          0
CauVuot1         RECT_CLOSED  4                3          0          0
CauVuot2         RECT_CLOSED  4                3          0          0
LienNinh1        RECT_CLOSED  2                3          0          0
LienNinh2        RECT_CLOSED  2                3          0          0
CauDo            RECT_CLOSED  2                3          0          0
CongChua         RECT_CLOSED  2                4          0          0
OngTru2          RECT_CLOSED  2                3          0          0
OngTru1          RECT_CLOSED  2                3          0          0
BacHa            RECT_CLOSED  2                3          0          0

[TRANSECTS]
;;Transect Data in HEC-2 format
;
NC 0.025    0.025    0.025   
X1 MC2               14       0.0      0.0      0.0      0.0      0.0      0.0      0.0     
GR 4.72     0        4.6      3.3      4.56     8        3.8      11       3.3      12.9    
GR 2.96     17.1     2.9      21.8     3        26.3     3.35     32       3.8      34.4    
GR 4.19     36.3     4.35     41.4     4.86     46.4     5.7      58      
;
NC 0.015    0.015    0.015   
X1 MC3               14       0.0      0.0      0.0      0.0      0.0      0.0      0.0     
GR 5.75     0        5.68     10       5.63     30       3.8      32.4     3.25     33.4    
GR 2.96     34.9     2.9      38.9     3        42.9     3.45     47.2     3.8      50      
GR 5        54.7     5.08     62.5     5.15     70.5     5.18     80      
;
NC 0.015    0.015    0.015   