[TITLE]
;;Project Title/Notes

[OPTIONS]
;;Option             Value
FLOW_UNITS           MGD
INFILTRATION         HORTON
FLOW_ROUTING         DYNWAVE
LINK_OFFSETS         DEPTH
MIN_SLOPE            0
ALLOW_PONDING        NO
SKIP_STEADY_STATE    NO

START_DATE           01/01/2014
START_TIME           00:00:00
REPORT_START_DATE    01/01/2014
REPORT_START_TIME    00:00:00
END_DATE             01/01/2014
END_TIME             19:00:00
SWEEP_START          01/01
SWEEP_END            12/31
DRY_DAYS             5.000000
REPORT_STEP          00:00:10
WET_STEP             01:00:00
DRY_STEP             01:00:00
ROUTING_STEP         0:00:05 

INERTIAL_DAMPING     PARTIAL
NORMAL_FLOW_LIMITED  BOTH
FORCE_MAIN_EQUATION  H-W
VARIABLE_STEP        0.75
LENGTHENING_STEP     5
MIN_SURFAREA         12.557
MAX_TRIALS           8
HEAD_TOLERANCE       0.001000
SYS_FLOW_TOL         5
LAT_FLOW_TOL         5
MINIMUM_STEP         0
THREADS              1

[EVAPORATION]
;;Data Source    Parameters
;;-------------- ----------------
CONSTANT         0.0
DRY_ONLY         NO

[JUNCTIONS]
;;Name           Elevation  MaxDepth   InitDepth  SurDepth   Aponded   
;;-------------- ---------- ---------- ---------- ---------- ----------
;         1
D331MNH0103XX    72.420000  7.580000   0.000000   0.000000   0.000000  
;         1
D331MNH0104XX    73.020000  7.998532   0.000000   0.000000   0.000000  
;         1
D331MNH0115XX    74.230000  7.536037   0.000000   0.000000   0.000000  
;         1
D331MNH1559XX    71.480000  8.287258   0.000000   0.000000   0.000000  
;         1
D350MNH0103XX    69.880000  8.120000   0.000000   0.000000   0.000000  
;         1
D350MNH0109XX    68.150000  7.854601   0.000000   0.000000   0.000000  
;         1
D350MNH0110XX    67.939101  7.960038   0.000000   0.000000   0.000000  
;         1
D350MNH0113XX    66.511351  7.338762   0.000000   0.000000   0.000000  
;         1
D350MNH0114XX    65.911480  6.874620   0.000000   0.000000   0.000000  
;         1
D350MNH0115XX    65.400089  6.909310   0.000000   0.000000   0.000000  
;         1
D350MNH1554XX    70.130000  6.870000   0.000000   0.000000   0.000000  
;         1
S105MNH0201XX    97.680000  17.255638  0.000000   0.000000   0.000000  
;         1
S105MNH0202XX    105.480000 12.698955  0.000000   0.000000   0.000000  
;         1
S105MNH0203XX    105.040000 12.727006  0.000000   0.000000   0.000000  
;         1
S105MNH0204XX    99.470000  17.570298  0.000000   0.000000   0.000000  
;         1
S105MNH0205XX    99.800000  17.691302  0.000000   0.000000   0.000000  
;         1
S106MNH0203XX    109.240000 11.760000  0.000000   0.000000   0.000000  
;         1
S106MNH0204XX    108.190000 11.364993  0.000000   0.000000   0.000000  
;         1
S106MNH0209XX    107.140000 13.648368  0.000000   0.000000   0.000000  
;         1
S106MNH0210XX    106.090000 13.624996  0.000000   0.000000   0.000000  
;         1
S107MNH0201XX    110.490000 11.510000  0.000000   0.000000   0.000000  
;         1
S107MNH0206XX    110.930000 11.070000  0.000000   0.000000   0.000000  
;         1
S107MNH0207XX    111.540000 11.460000  0.000000   0.000000   0.000000  
;         1
S109MNH0209XX    134.500000 10.500000  0.000000   0.000000   0.000000  
;         1
S109MNH0211XX    135.720000 10.280000  0.000000   0.000000   0.000000  
;         1
S109MNH0224XX    134.900000 10.352808  0.000000   0.000000   0.000000  
;         1
S113MNH0205XX    182.900000 15.148645  0.000000   0.000000   0.000000  
;         1
S113MNH0206XX    180.620000 14.723750  0.000000   0.000000   0.000000  
;         1
S113MNH0207XX    177.040000 14.464349  0.000000   0.000000   0.000000  
;         1
S113MNH0208XX    176.200000 13.447385  0.000000   0.000000   0.000000  
;         1
S113MNH0209XX    175.860000 13.140000  0.000000   0.000000   0.000000  
;         1
S113MNH0210XX    175.460000 13.960074  0.000000   0.000000   0.000000  
;         1
S113MNH0211XX    174.690000 15.152178  0.000000   0.000000   0.000000  
;         1
S113MNH0212XX    174.340000 14.862728  0.000000   0.000000   0.000000  
;         1
S114MNH0209XX    195.150000 12.850000  0.000000   0.000000   0.000000  
;         1
S114MNH0210XX    194.230000 12.440547  0.000000   0.000000   0.000000  
;         1
S114MNH0211XX    190.830000 12.170000  0.000000   0.000000   0.000000  
;         1
S114MNH0212XX    188.740000 12.505239  0.000000   0.000000   0.000000  
;         1
S114MNH0221XX    187.430000 13.570000  0.000000   0.000000   0.000000  
;         1
S114MNH0222XX    186.400000 14.424905  0.000000   0.000000   0.000000  
;         1
S114MNH0223XX    184.030000 15.970000  0.000000   0.000000   0.000000  
;         1
S114MNH0224XX    193.500000 11.730057  0.000000   0.000000   0.000000  
;         1
S114MNH0225XX    191.900000 12.100000  0.000000   0.000000   0.000000  
;         1
S115MNH0204XX    191.050000 9.689609   0.000000   0.000000   0.000000  
;         1
S115MNH0206XX    194.400000 11.432825  0.000000   0.000000   0.000000  
;         1
S115MNH0208XX    197.830000 10.753633  0.000000   0.000000   0.000000  
;         1
S115MNH0209XX    197.200000 12.772763  0.000000   0.000000   0.000000  
;         1
S115MNH0210XX    197.040000 13.610177  0.000000   0.000000   0.000000  
;         1
S115MNH0211XX    195.810000 14.190000  0.000000   0.000000   0.000000  
;         1
S126MNH0205XX    181.150000 6.194009   0.000000   0.000000   0.000000  
;         1
S126MNH0209XX    185.680000 7.320000   0.000000   0.000000   0.000000  
;         1
S126MNH0210XX    183.410000 6.780018   0.000000   0.000000   0.000000  
;         1
S126MNH0220XX    188.410000 7.590000   0.000000   0.000000   0.000000  
;         1
S128MNH0210XX    173.520000 13.962147  0.000000   0.000000   0.000000  
;         1
S128MNH0214XX    170.950000 13.756985  0.000000   0.000000   0.000000  
;         1
S128MNH0215XX    169.680000 12.756813  0.000000   0.000000   0.000000  
;         1
S128MNH0218XX    168.430000 11.007195  0.000000   0.000000   0.000000  
;         1
S128MNH0219XX    167.810000 10.380155  0.000000   0.000000   0.000000  
;         1
S132MNH0211XX    132.480000 10.520000  0.000000   0.000000   0.000000  
;         1
S132MNH0213XX    131.020000 10.948796  0.000000   0.000000   0.000000  
;         1
S132MNH0215XX    129.360000 13.640000  0.000000   0.000000   0.000000  
;         1
S132MNH0217XX    127.520000 13.480000  0.000000   0.000000   0.000000  
;         1
S135MNH0214XX    97.370000  17.114634  0.000000   0.000000   0.000000  
;         1
S135MNH0215XX    95.060000  16.568304  0.000000   0.000000   0.000000  
;         1
S145MNH1202XX    89.930000  15.519203  0.000000   0.000000   0.000000  
;         1
S149MNH0201XX    125.660000 11.340000  0.000000   0.000000   0.000000  
;         1
S149MNH0216XX    125.990000 12.010000  0.000000   0.000000   0.000000  
;         1
S149MNH0218XX    127.100000 11.900000  0.000000   0.000000   0.000000  
;         1
S149MNH0219XX    125.720000 11.280000  0.000000   0.000000   0.000000  
;         1
S149MNH0225XX    124.840000 10.613644  0.000000   0.000000   0.000000  
;         1
S153MNH0213XX    164.480000 11.939052  0.000000   0.000000   0.000000  
;         1
S153MNH0214XX    163.250000 12.111359  0.000000   0.000000   0.000000  
;         1
S153MNH0218XX    161.800000 12.200000  0.000000   0.000000   0.000000  
;         1
S153MNH0219XX    166.240000 10.760000  0.000000   0.000000   0.000000  
;         1
S153MNH0238XX    160.660000 11.340000  0.000000   0.000000   0.000000  
;         1
S155MNH0201XX    173.800000 5.200000   0.000000   0.000000   0.000000  
;         1
S155MNH0202XX    175.510000 5.076441   0.000000   0.000000   0.000000  
;         1
S155MNH0203XX    177.800000 5.200000   0.000000   0.000000   0.000000  
;         1
S155MNH0204XX    178.310000 4.771299   0.000000   0.000000   0.000000  
;         1
S161MNH0201XX    198.400000 14.240320  0.000000   0.000000   0.000000  
;         1
S162MNH0203XX    196.000000 8.863876   0.000000   0.000000   0.000000  
;         1
S162MNH0204XX    193.500000 11.084320  0.000000   0.000000   0.000000  
;         1
S162MNH0212XX    187.400000 11.600000  0.000000   0.000000   0.000000  
;         1
S162MNH0213XX    189.600000 13.268027  0.000000   0.000000   0.000000  
;         1
S162MNH0219XX    189.500000 13.201996  0.000000   0.000000   0.000000  
;         1
S163MNH0210XX    180.000000 10.233795  0.000000   0.000000   0.000000  
;         1
S163MNH0211XX    184.440000 9.560000   0.000000   0.000000   0.000000  
;         1
S163MNH0212XX    185.980000 11.020000  0.000000   0.000000   0.000000  
;         1
S163MNH0219XX    185.300000 10.856128  0.000000   0.000000   0.000000  
;         1
S163MNH0220XX    181.130000 11.338567  0.000000   0.000000   0.000000  
;         1
S164MNH0203XX    178.010000 9.990000   0.000000   0.000000   0.000000  
;         1
S164MNH0204XX    176.870000 9.901713   0.000000   0.000000   0.000000  
;         1
S164MNH0205XX    174.750000 7.447556   0.000000   0.000000   0.000000  
;         1
S164MNH0206XX    173.560000 8.440000   0.000000   0.000000   0.000000  
;         1
S165MNH0218XX    170.930000 11.070000  0.000000   0.000000   0.000000  
;         1
S165MNH0226XX    168.670000 11.330000  0.000000   0.000000   0.000000  
;         1
S165MNH0230XX    169.150000 10.850000  0.000000   0.000000   0.000000  
;         1
S166MNH0217XX    166.470000 9.530000   0.000000   0.000000   0.000000  
;         1
S166MNH0218XX    172.740000 4.915899   0.000000   0.000000   0.000000  
;         1
S166MNH0219XX    165.300000 10.570789  0.000000   0.000000   0.000000  
;         1
S166MNH0229XX    166.400000 9.600000   0.000000   0.000000   0.000000  
;         1
S167MNH0204XX    163.650000 11.350000  0.000000   0.000000   0.000000  
;         1
S167MNH0205XX    162.220000 9.780000   0.000000   0.000000   0.000000  
;         1
S167MNH0206XX    160.820000 10.180000  0.000000   0.000000   0.000000  
;         1
S167MNH0207XX    159.520000 9.480000   0.000000   0.000000   0.000000  
;         1
S168MNH0204XX    154.877000 10.465972  0.000000   0.000000   0.000000  
;         1
S168MNH0205XX    154.437000 11.198818  0.000000   0.000000   0.000000  
;         1
S168MNH0206XX    153.917000 11.622017  0.000000   0.000000   0.000000  
;         1
S168MNH0207XX    154.047000 11.123532  0.000000   0.000000   0.000000  
;         1
S168MNH0208XX    158.040000 11.746362  0.000000   0.000000   0.000000  
;         1
S168MNH0209XX    152.797000 10.948026  0.000000   0.000000   0.000000  
;         1
S168MNH0212XX    155.507000 10.060932  0.000000   0.000000   0.000000  
;         1
S168MNH0213XX    156.970000 9.030000   0.000000   0.000000   0.000000  
;         1
S169MNH0210XX    151.260000 9.740000   0.000000   0.000000   0.000000  
;         1
S169MNH0211XX    149.710000 7.290000   0.000000   0.000000   0.000000  
;         1
S169MNH0212XX    148.570000 6.526603   0.000000   0.000000   0.000000  
;         1
S169MNH0214XX    146.610000 7.831559   0.000000   0.000000   0.000000  
;         1
S169MNH0220XX    148.160000 7.219318   0.000000   0.000000   0.000000  
;         1
S170MNH0203XX    140.210000 8.369742   0.000000   0.000000   0.000000  
;         1
S170MNH0204XX    136.750000 8.831497   0.000000   0.000000   0.000000  
;         1
S170MNH0205XX    135.000000 8.221970   0.000000   0.000000   0.000000  
;         1
S170MNH0218XX    143.450000 9.312512   0.000000   0.000000   0.000000  
;         1
S170MNH0250XX    143.780000 9.220000   0.000000   0.000000   0.000000  
;         1
S170MNH0251XX    141.800000 7.978336   0.000000   0.000000   0.000000  
;         1
S171MNH0208XX    127.200000 6.800000   0.000000   0.000000   0.000000  
;         1
S171MNH0209XX    128.170000 6.830000   0.000000   0.000000   0.000000  
;         1
S171MNH0210XX    129.370000 6.630000   0.000000   0.000000   0.000000  
;         1
S171MNH0211XX    132.470000 7.046891   0.000000   0.000000   0.000000  
;         1
S171MNH0219XX    128.150000 6.850000   0.000000   0.000000   0.000000  
;         1
S171MNH0220XX    127.010000 6.990000   0.000000   0.000000   0.000000  
;         1
S172MNH0201XX    125.870000 8.130000   0.000000   0.000000   0.000000  
;         1
S172MNH0207XX    118.830000 10.170000  0.000000   0.000000   0.000000  
;         1
S172MNH0208XX    119.120000 9.880000   0.000000   0.000000   0.000000  
;         1
S172MNH0212XX    123.930000 8.070000   0.000000   0.000000   0.000000  
;         1
S172MNH0213XX    123.190000 8.810000   0.000000   0.000000   0.000000  
;         1
S172MNH0215XX    121.040000 9.612145   0.000000   0.000000   0.000000  
;         1
S173MNH0210XX    109.010000 8.480425   0.000000   0.000000   0.000000  
;         1
S173MNH0211XX    108.790000 8.476800   0.000000   0.000000   0.000000  
;         1
S173MNH0214XX    110.750000 8.250000   0.000000   0.000000   0.000000  
;         1
S173MNH0216XX    112.920000 9.080000   0.000000   0.000000   0.000000  
;         1
S173MNH0218XX    116.100000 10.558974  0.000000   0.000000   0.000000  
;         1
S174MNH0209XX    100.700000 9.416058   0.000000   0.000000   0.000000  
;         1
S174MNH0210XX    103.390000 8.610000   0.000000   0.000000   0.000000  
;         1
S174MNH0211XX    105.920000 7.771277   0.000000   0.000000   0.000000  
;         1
S175MNH0204XX    96.650000  9.655527   0.000000   0.000000   0.000000  
;         1
S175MNH0205XX    98.110000  9.890000   0.000000   0.000000   0.000000  
;         1
S175MNH0207XX    93.000000  9.121941   0.000000   0.000000   0.000000  
;         1
S175MNH0208XX    96.500000  9.500000   0.000000   0.000000   0.000000  
;         1
S175MNH0209XX    95.540000  9.162393   0.000000   0.000000   0.000000  
;         1
S176MNH0205XX    84.800000  14.335208  0.000000   0.000000   0.000000  
;         1
S176MNH0206XX    90.380000  9.672528   0.000000   0.000000   0.000000  
;         1
S185MNH0201XX    80.070000  12.901550  0.000000   0.000000   0.000000  
;         1
S189MNH0201XX    113.880000 5.958730   0.000000   0.000000   0.000000  
;         1
S189MNH0202XX    113.140000 6.860000   0.000000   0.000000   0.000000  
;         1
S189MNH0204XX    112.480000 7.207561   0.000000   0.000000   0.000000  
;         1
S189MNH0205XX    111.080000 7.832521   0.000000   0.000000   0.000000  
;         1
S189MNH0210XX    112.080000 7.614733   0.000000   0.000000   0.000000  
;         1
S189MNH0211XX    113.410000 7.590000   0.000000   0.000000   0.000000  
;         1
S189MNH0212XX    115.220000 7.780000   0.000000   0.000000   0.000000  
;         1
S189MNH0213XX    115.580000 8.420000   0.000000   0.000000   0.000000  
;         1
S189MNH0218XX    110.300000 6.976443   0.000000   0.000000   0.000000  
;         1
S189MNH0219XX    113.630000 6.370000   0.000000   0.000000   0.000000  
;         1
S190MNH0221XX    115.950000 7.491521   0.000000   0.000000   0.000000  
;         1
S190MNH0223XX    114.800000 5.200000   0.000000   0.000000   0.000000  
;         1
S190MNH0229XX    115.540000 6.460000   0.000000   0.000000   0.000000  
;         1
S208MNH0213XX    126.610000 14.443177  0.000000   0.000000   0.000000  
;         1
S209MNH0203XX    120.400000 13.600000  0.000000   0.000000   0.000000  
;         1
S209MNH0213XX    118.500000 12.672302  0.000000   0.000000   0.000000  
;         1
S209MNH0214XX    113.250000 16.750000  0.000000   0.000000   0.000000  
;         1
S209MNH0215XX    118.370000 12.630000  0.000000   0.000000   0.000000  
;         1
S210MNH0214XX    112.280000 13.720000  0.000000   0.000000   0.000000  
;         1
S212MNH0202XX    104.160000 8.362156   0.000000   0.000000   0.000000  
;         1
S212MNH0203XX    104.700000 8.300000   0.000000   0.000000   0.000000  
;         1
S212MNH0205XX    106.130000 7.114247   0.000000   0.000000   0.000000  
;         1
S212MNH0207XX    108.310000 7.076147   0.000000   0.000000   0.000000  
;         1
S216MNH0202XX    70.350000  10.128455  0.000000   0.000000   0.000000  
;         1
S225MNH0203XX    65.930000  11.827057  0.000000   0.000000   0.000000  
;         1
S229MNH0201XX    95.540000  9.218438   0.000000   0.000000   0.000000  
;         1
S229MNH0208XX    101.320000 9.680000   0.000000   0.000000   0.000000  
;         1
S229MNH0222XX    94.880000  9.196553   0.000000   0.000000   0.000000  
;         1
S229MNH0223XX    98.490000  9.510000   0.000000   0.000000   0.000000  
;         1
S231MNH0201XX    109.300000 12.993747  0.000000   0.000000   0.000000  
;         1
S231MNH0202XX    107.850000 13.150000  0.000000   0.000000   0.000000  
;         1
S231MNH0203XX    109.400000 13.600000  0.000000   0.000000   0.000000  
;         1
S231MNH0206XX    102.930000 18.070000  0.000000   0.000000   0.000000  
;         1
S231MNH0207XX    110.950000 14.050000  0.000000   0.000000   0.000000  
;         1
S231MNH0208XX    109.980000 13.211765  0.000000   0.000000   0.000000  
;         1
S231MNH0226XX    102.480000 16.520000  0.000000   0.000000   0.000000  
;         1
S232MNH0204XX    110.700000 15.300000  0.000000   0.000000   0.000000  
;         1
S232MNH0206XX    112.000000 16.000000  0.000000   0.000000   0.000000  
;         1
S233MNH0201XX    123.310000 11.047880  0.000000   0.000000   0.000000  
;         1
S233MNH0202XX    124.710000 12.343940  0.000000   0.000000   0.000000  
;         1
S233MNH0208XX    121.450000 10.550000  0.000000   0.000000   0.000000  
;         1
S235MNH0203XX    139.800000 13.200000  0.000000   0.000000   0.000000  
;         1
S235MNH0205XX    140.700000 12.804745  0.000000   0.000000   0.000000  
;         1
S235MNH0214XX    142.850000 14.877097  0.000000   0.000000   0.000000  
;         1
S235MNH0227XX    140.500000 12.952286  0.000000   0.000000   0.000000  
;         1
S235MNH0228XX    139.040000 12.960000  0.000000   0.000000   0.000000  
;         1
S235MNH0231XX    140.950000 13.050000  0.000000   0.000000   0.000000  
;         1
S246MNH0203XX    133.330000 14.670000  0.000000   0.000000   0.000000  
;         1
S246MNH0204XX    136.200000 13.285519  0.000000   0.000000   0.000000  
;         1
S246MNH0205XX    137.600000 13.400000  0.000000   0.000000   0.000000  
;         1
S246MNH0227XX    136.970000 13.030000  0.000000   0.000000   0.000000  
;         1
S248MNH0201XX    118.800000 10.200000  0.000000   0.000000   0.000000  
;         1
S248MNH0204XX    120.420000 9.047331   0.000000   0.000000   0.000000  
;         1
S248MNH0209XX    121.350000 10.475500  0.000000   0.000000   0.000000  
;         1
S248MNH0226XX    117.857000 9.143000   0.000000   0.000000   0.000000  
;         1
S248MNH0227XX    119.160000 9.470524   0.000000   0.000000   0.000000  
;         1
S249MNH0203XX    114.750000 5.250000   0.000000   0.000000   0.000000  
;         1
S249MNH0215XX    111.150000 8.850000   0.000000   0.000000   0.000000  
;         1
S249MNH0217XX    113.400000 6.600000   0.000000   0.000000   0.000000  
;         1
S250MNH0206XX    102.170000 14.350119  0.000000   0.000000   0.000000  
;         1
S250MNH0209XX    100.310000 11.958166  0.000000   0.000000   0.000000  
;         1
S250MNH0211XX    99.060000  10.940000  0.000000   0.000000   0.000000  
;         1
S250MNH0223XX    98.740000  11.260000  0.000000   0.000000   0.000000  
;         1
S252MNH0206XX    94.030000  9.970000   0.000000   0.000000   0.000000  
;         1
S252MNH0207XX    90.670000  11.330000  0.000000   0.000000   0.000000  
;         1
S252MNH0208XX    87.570000  11.841583  0.000000   0.000000   0.000000  
;         1
S252MNH0209XX    85.500000  11.500000  0.000000   0.000000   0.000000  
;         1
S252MNH0211XX    85.470000  11.530000  0.000000   0.000000   0.000000  
;         1
S252MNH0223XX    86.000000  12.000000  0.000000   0.000000   0.000000  
;         1
S256MNH0210XX    61.020000  11.980000  0.000000   0.000000   0.000000  
;         1
S265MNH0202XX    59.120000  8.386592   0.000000   0.000000   0.000000  
;         1
S265MNH0203XX    58.590000  8.410000   0.000000   0.000000   0.000000  
;         1
S265MNH0204XX    56.120000  12.880000  0.000000   0.000000   0.000000  
;         1
S266MNH0201XX    63.520000  10.480000  0.000000   0.000000   0.000000  
;         1
S266MNH0202XX    62.660000  9.340000   0.000000   0.000000   0.000000  
;         1
S266MNH0203XX    61.640000  7.360000   0.000000   0.000000   0.000000  
;         1
S266MNH0211XX    62.890000  9.110000   0.000000   0.000000   0.000000  
;         1
S266MNH0212XX    59.860000  9.140000   0.000000   0.000000   0.000000  
;         1
S267MNH0205XX    63.400000  9.600000   0.000000   0.000000   0.000000  
;         1
S267MNH0206XX    64.410000  10.590000  0.000000   0.000000   0.000000  
;         1
S267MNH0207XX    65.220000  9.811097   0.000000   0.000000   0.000000  
;         1
S267MNH0208XX    61.700000  10.300000  0.000000   0.000000   0.000000  
;         1
S267MNH0209XX    67.670000  9.604872   0.000000   0.000000   0.000000  
;         1
S267MNH0210XX    69.770000  10.230000  0.000000   0.000000   0.000000  
;         1
S267MNH0211XX    69.960000  10.040000  0.000000   0.000000   0.000000  
;         1
S267MNH0227XX    63.800000  9.540599   0.000000   0.000000   0.000000  
;         1
S267MNH0229XX    66.000000  9.098900   0.000000   0.000000   0.000000  
;         1
S268MNH0206XX    76.440000  9.560000   0.000000   0.000000   0.000000  
;         1
S268MNH0207XX    74.520000  9.480000   0.000000   0.000000   0.000000  
;         1
S268MNH0208XX    74.370000  9.288554   0.000000   0.000000   0.000000  
;         1
S268MNH0210XX    72.120000  9.205424   0.000000   0.000000   0.000000  
;         1
S269MNH0207XX    80.300000  11.822665  0.000000   0.000000   0.000000  
;         1
S269MNH0208XX    78.600000  10.400000  0.000000   0.000000   0.000000  
;         1
S269MNH0209XX    80.040000  12.165246  0.000000   0.000000   0.000000  
;         1
S269MNH0210XX    80.430000  11.954216  0.000000   0.000000   0.000000  
;         1
S269MNH0211XX    81.410000  11.215313  0.000000   0.000000   0.000000  
;         1
S269MNH0213XX    78.860000  10.879182  0.000000   0.000000   0.000000  
;         1
S269MNH0214XX    78.350000  9.650000   0.000000   0.000000   0.000000  
;         1
S271MNH0204XX    95.124000  9.876000   0.000000   0.000000   0.000000  
;         1
S271MNH0206XX    95.300000  10.700000  0.000000   0.000000   0.000000  
;         1
S271MNH0207XX    96.204000  10.796000  0.000000   0.000000   0.000000  
;         1
S271MNH0208XX    97.870000  10.776851  0.000000   0.000000   0.000000  
;         1
S271MNH0231XX    97.244000  9.756000   0.000000   0.000000   0.000000  
;         1
S271MNH0233XX    94.784000  10.216000  0.000000   0.000000   0.000000  
;         1
S271MNH0234XX    94.934000  10.066000  0.000000   0.000000   0.000000  
;         1
S272MNH0207XX    103.920000 12.080000  0.000000   0.000000   0.000000  
;         1
S272MNH0208XX    102.550000 11.866580  0.000000   0.000000   0.000000  
;         1
S272MNH0210XX    100.690000 9.466425   0.000000   0.000000   0.000000  
;         1
S272MNH0216XX    100.500000 9.500000   0.000000   0.000000   0.000000  
;         1
S272MNH0217XX    101.800000 10.986781  0.000000   0.000000   0.000000  
;         1
S273MNH0201XX    113.260000 9.740000   0.000000   0.000000   0.000000  
;         1
S273MNH0202XX    114.410000 9.590000   0.000000   0.000000   0.000000  
;         1
S273MNH0203XX    115.410000 9.590000   0.000000   0.000000   0.000000  
;         1
S273MNH0204XX    116.610000 9.390000   0.000000   0.000000   0.000000  
;         1
S273MNH0210XX    117.600000 8.904112   0.000000   0.000000   0.000000  
;         1
S275MNH0205XX    129.810000 16.186490  0.000000   0.000000   0.000000  
;         1
S275MNH0207XX    128.450000 14.149579  0.000000   0.000000   0.000000  
;         1
S275MNH0208XX    128.300000 13.749850  0.000000   0.000000   0.000000  
;         1
S275MNH0210XX    127.450000 12.550000  0.000000   0.000000   0.000000  
;         1
S275MNH0211XX    126.740000 12.099676  0.000000   0.000000   0.000000  
;         1
S286MNH0201XX    119.360000 7.982590   0.000000   0.000000   0.000000  
;         1
S286MNH0211XX    126.000000 10.000000  0.000000   0.000000   0.000000  
;         1
S286MNH0213XX    125.640000 9.360000   0.000000   0.000000   0.000000  
;         1
S286MNH0216XX    122.400000 8.012399   0.000000   0.000000   0.000000  
;         1
S286MNH0217XX    118.920000 8.516958   0.000000   0.000000   0.000000  
;         1
S286MNH0220XX    117.330000 9.966623   0.000000   0.000000   0.000000  
;         1
S286TEE1045XX    121.920558 8.040502   0.000000   0.000000   0.000000  
;         1
S287MNH0202XX    114.320000 11.680000  0.000000   0.000000   0.000000  
;         1
S287MNH0203XX    115.750000 11.250000  0.000000   0.000000   0.000000  
;         1
S287MNH0208XX    113.860000 11.140000  0.000000   0.000000   0.000000  
;         1
S287MNH0209XX    113.060000 11.416532  0.000000   0.000000   0.000000  
;         1
S287MNH0210XX    111.700000 12.300000  0.000000   0.000000   0.000000  
;         1
S288MNH0201XX    111.040000 12.596337  0.000000   0.000000   0.000000  
;         1
S288MNH0206XX    110.150000 12.922548  0.000000   0.000000   0.000000  
;         1
S288MNH0208XX    109.530000 13.470000  0.000000   0.000000   0.000000  
;         1
S288MNH0209XX    108.700000 14.373120  0.000000   0.000000   0.000000  
;         1
S288MNH0210XX    108.250000 15.750000  0.000000   0.000000   0.000000  
;         1
S288MNH0211XX    107.560000 14.500989  0.000000   0.000000   0.000000  
;         1
S288MNH0219XX    106.150000 13.284982  0.000000   0.000000   0.000000  
;         1
S288MNH0220XX    105.070000 11.930000  0.000000   0.000000   0.000000  
;         1
S290MNH0220XX    92.869000  9.569156   0.000000   0.000000   0.000000  
;         1
S290MNH0221XX    91.260000  8.740000   0.000000   0.000000   0.000000  
;         1
S290MNH0222XX    90.860000  9.140000   0.000000   0.000000   0.000000  
;         1
S290MNH0223XX    89.010000  8.990000   0.000000   0.000000   0.000000  
;         1
S292MNH0201XX    66.520000  11.040211  0.000000   0.000000   0.000000  
;         1
S292MNH0209XX    74.810000  10.190000  0.000000   0.000000   0.000000  
;         1
S292MNH0210XX    73.250000  10.750000  0.000000   0.000000   0.000000  
;         1
S293MNH0201XX    62.370000  9.260043   0.000000   0.000000   0.000000  
;         1
S293MNH0202XX    65.910000  11.055401  0.000000   0.000000   0.000000  
;         1
S293MNH0203XX    65.440000  10.560000  0.000000   0.000000   0.000000  
;         1
S293MNH0204XX    64.970000  10.030000  0.000000   0.000000   0.000000  
;         1
S293MNH0205XX    64.420000  9.580000   0.000000   0.000000   0.000000  
;         1
S293MNH0206XX    63.400000  10.014497  0.000000   0.000000   0.000000  
;         1
S293MNH0207XX    63.270000  9.730000   0.000000   0.000000   0.000000  
;         1
S293MNH0224XX    62.300000  8.943790   0.000000   0.000000   0.000000  
;         1
S294MNH0203XX    61.220000  9.780000   0.000000   0.000000   0.000000  
;         1
S294MNH0205XX    60.020000  12.112271  0.000000   0.000000   0.000000  
;         1
S294MNH0206XX    59.420000  11.899466  0.000000   0.000000   0.000000  
;         1
S294MNH0207XX    58.300000  13.700000  0.000000   0.000000   0.000000  
;         1
S294MNH0218XX    60.620000  11.479129  0.000000   0.000000   0.000000  
;         1
S295MNH0201XX    57.120000  11.880000  0.000000   0.000000   0.000000  
;         1
S295MNH0202XX    56.220000  10.780000  0.000000   0.000000   0.000000  
;         1
S295MNH0203XX    55.370000  10.630000  0.000000   0.000000   0.000000  
;         1
S295MNH0204XX    54.250000  10.750000  0.000000   0.000000   0.000000  
;         1
S295MNH0207XX    55.250000  10.750000  0.000000   0.000000   0.000000  
;         1
S295MNH0208XX    54.780000  10.232733  0.000000   0.000000   0.000000  
;         1
S295MNH0209XX    54.320000  10.680000  0.000000   0.000000   0.000000  
;         1
S295MNH0210XX    53.900000  10.100000  0.000000   0.000000   0.000000  
;         1
S295MNH0211XX    53.440000  10.560000  0.000000   0.000000   0.000000  
;         1
S295MNH0212XX    53.230000  10.359874  0.000000   0.000000   0.000000  
;         1
S296MNH0201XX    50.840000  12.160000  0.000000   0.000000   0.000000  
;         1
S296MNH0202XX    49.300000  12.700000  0.000000   0.000000   0.000000  
;         1
S296MNH0203XX    52.200000  23.242535  0.000000   0.000000   0.000000  
;         1
S296MNH0209XX    52.080000  9.920000   0.000000   0.000000   0.000000  
;         1
S296MNH0211XX    52.950000  10.050000  0.000000   0.000000   0.000000  
;         1
S296MNH0212XX    52.490000  10.510000  0.000000   0.000000   0.000000  
S299MNH0201XX    38.200000  6.999000   0.000000   0.000000   0.000000  
S302MNH0201XX    36.400000  11.600000  0.000000   0.000000   0.000000  
;         1
S302MNH0202XX    35.280000  11.720000  0.000000   0.000000   0.000000  
;         1
S302MNH0203XX    34.200000  11.570985  0.000000   0.000000   0.000000  
S302MNH0204XX    37.500000  13.429108  0.000000   0.000000   0.000000  
;         1
S305MNH0201XX    44.280000  13.720000  0.000000   0.000000   0.000000  
;         1
S305MNH0202XX    45.250000  13.750000  0.000000   0.000000   0.000000  
;         1
S305MNH0203XX    45.870000  13.765891  0.000000   0.000000   0.000000  
;         1
S305MNH0204XX    46.000000  13.723736  0.000000   0.000000   0.000000  
;         1
S305MNH0205XX    47.200000  12.800000  0.000000   0.000000   0.000000  
;         1
S305MNH0206XX    46.930000  13.073986  0.000000   0.000000   0.000000  
;         1
S305MNH0207XX    47.340000  12.660000  0.000000   0.000000   0.000000  
;         1
S305MNH0208XX    46.560000  12.440000  0.000000   0.000000   0.000000  
;         1
S305MNH0209XX    43.690000  14.310000  0.000000   0.000000   0.000000  
;         1
S306MNH0201XX    53.580000  11.323694  0.000000   0.000000   0.000000  