[TITLE]
;;Project Title/Notes

[OPTIONS]
;;Option             Value
FLOW_UNITS           CFS
INFILTRATION         HORTON
FLOW_ROUTING         DYNWAVE
LINK_OFFSETS         DEPTH
MIN_SLOPE            0
ALLOW_PONDING        YES
SKIP_STEADY_STATE    NO

IGNORE_SNOWMELT      YES
IGNORE_GROUNDWATER   YES
IGNORE_QUALITY       YES
START_DATE           01/01/2002
START_TIME           00:00:00
REPORT_START_DATE    01/01/2002
REPORT_START_TIME    00:00:00
END_DATE             01/08/2002
END_TIME             06:00:00
SWEEP_START          01/01
SWEEP_END            12/31
DRY_DAYS             5.000000
REPORT_STEP          00:10:00
WET_STEP             00:05:00
DRY_STEP             01:00:00
ROUTING_STEP         0:00:30 

INERTIAL_DAMPING     NONE
NORMAL_FLOW_LIMITED  SLOPE
FORCE_MAIN_EQUATION  H-W
VARIABLE_STEP        0.75
LENGTHENING_STEP     10
MIN_SURFAREA         12.557
MAX_TRIALS           4
HEAD_TOLERANCE       0.005000
SYS_FLOW_TOL         5
LAT_FLOW_TOL         5
MINIMUM_STEP         0
THREADS              1

[EVAPORATION]
;;Data Source    Parameters
;;-------------- ----------------
CONSTANT         0.000000
DRY_ONLY         NO

[RAINGAGES]
;;Name           Format    Interval SCF      Source    
;;-------------- --------- ------ ------ ----------
EVENT            CUMULATIVE 0.100000 1.000000 TIMESERIES SCS_TYPEII_010YR

[SUBCATCHMENTS]
;;Name           Rain Gage        Outlet           Area     %Imperv  Width    %Slope   CurbLen  SnowPack        
;;-------------- ---------------- ---------------- -------- -------- -------- -------- -------- ----------------
LRC_ARJD1_BR1_001 EVENT            ARJD1_BR1_05     119.745834 18.980000 2424.400000 0.200000 0.000000                 
LRC_ARJD1_BR2L1_001 EVENT            ARJD1_BR2L1_02   30.574688 68.330000 1911.300000 0.190000 0.000000                 
LRC_ARJD1_BR2L1_002 EVENT            ARJD1_BR2L1_04   74.847580 83.940000 3862.200000 0.300000 0.000000                 
LRC_ARJD1_BR2L1_003 EVENT            ARJD1_BR2L1_15   117.739611 62.130000 2857.900000 0.320000 0.000000                 
LRC_ARJD1_BR2L1_004 EVENT            ARJD1_BR2L1_16   97.944366 42.210000 2858.500000 0.220000 0.000000                 
LRC_ARJD1_BR2L1_005 EVENT            ARJD1_BR2L1_18   27.505637 67.260000 1208.500000 0.700000 0.000000                 
LRC_ARJD1_BR2_001 EVENT            ARJD1_BR2_01     22.965427 76.800000 1723.800000 0.410000 0.000000                 
LRC_ARJD1_BR2_002 EVENT            ARJD1_BR2_04     26.326022 95.460000 759.700000 0.220000 0.000000                 
LRC_ARJD1_BR2_003 EVENT            ARJD1_BR2_05     33.905278 79.380000 1129.700000 0.250000 0.000000                 
LRC_ARJD1_BR2_004 EVENT            SPLIT_BR2_004    24.383481 57.750000 1046.800000 0.330000 0.000000                 
LRC_ARJD1_BR2_005 EVENT            ARJD1_BR2L1_17   7.221737 84.600000 449.100000 0.320000 0.000000                 
LRC_ARJD1_BR2_006 EVENT            ARJD1_BR2_11     14.334861 21.750000 833.100000 0.550000 0.000000                 
LRC_ARJD1_BR2_007 EVENT            SPLIT_BR2_007    69.183318 34.660000 2992.500000 0.250000 0.000000                 
LRC_ARJD1_BR2_008 EVENT            SPLIT_BR2_008    53.025751 52.880000 1267.400000 0.210000 0.000000                 
LRC_ARJD1_BR2_009 EVENT            ARJD1_BR2_22     157.362426 20.650000 3036.600000 0.160000 0.000000                 
LRC_ARJD1_BR2_010 EVENT            L_ARJD1_BR2_01   46.132821 13.690000 1704.700000 0.210000 0.000000                 
LRC_ARJD1_BR3_001 EVENT            ARJD1_BR3_07     128.001214 64.670000 2513.100000 0.350000 0.000000                 
LRC_ARJD1_BR4_001 EVENT            ARJD1_BR4_01     138.461673 21.700000 2182.800000 0.170000 0.000000                 
LRC_ARJD1_BR4_002 EVENT            ARJD1_BR4_01     6.141972 50.500000 100.000000 0.170000 0.000000                 
LRC_ARJD1_BR5_001 EVENT            ARJD1_BR5_02     62.188809 33.460000 2048.900000 0.490000 0.000000                 
LRC_ARJD1_BR5_002 EVENT            ARJD1_BR5_06     158.191032 34.730000 1993.600000 0.260000 0.000000                 
LRC_ARJD1_MT_001 EVENT            ARJD1_MT_03      69.514470 37.360000 2906.900000 0.370000 0.000000                 
LRC_ARJD1_MT_002 EVENT            SPLIT_BR5_002    59.811354 34.550000 1331.700000 0.420000 0.000000                 
LRC_ARJD1_MT_003 EVENT            ARJD1_MT_09      62.977552 32.110000 4241.700000 0.500000 0.000000                 
LRC_ARJD1_MT_004 EVENT            L_ARJD1_MT_01    67.032858 20.560000 2122.200000 0.320000 0.000000                 
LRC_ARJD1_MT_005 EVENT            SPLIT_MT_005     45.916791 21.360000 4799.500000 0.290000 0.000000                 
LRC_ARJD1_MT_006 EVENT            L_ARJD1_MT_03    40.095113 12.890000 1898.800000 0.590000 0.000000                 
LRC_ARJD1_MT_007 EVENT            L_ARJD1_MT_04    23.449306 24.760000 1594.000000 0.830000 0.000000                 
LRC_ARJD1_MT_008 EVENT            L_ARJD1_MT_09    76.055722 50.690000 2908.400000 0.350000 0.000000                 
LRC_ARJD1_MT_008A EVENT            L_ARJD1_MT_11    27.330772 84.200000 200.000000 0.170000 0.000000                 
LRC_ARJD1_MT_009 EVENT            L_ARJD1_MT-06    25.398898 50.410000 459.600000 0.140000 0.000000                 
LRC_ARJD1_MT_010 EVENT            L_ARJD1_MT-07    198.973823 38.640000 2886.000000 0.100000 0.000000                 
LRC_ARJD1_MT_011 EVENT            L_ARJD1_MT_08    23.402963 41.700000 820.800000 0.510000 0.000000                 
LRC_ARJD1_MT_012 EVENT            L_ARJD1_MT_10    172.254259 34.690000 3273.300000 0.120000 0.000000                 
LRC_ARJD1_MT_013 EVENT            ARJD1_BR3_04     29.416544 12.180000 1758.000000 0.390000 0.000000                 
LRC_ARJD1_MT_014 EVENT            L_ARJD1_MT_12    10.813923 35.130000 967.600000 0.620000 0.000000                 
LRC_ARJD1_MT_015 EVENT            L_ARJD1_MT_13    190.407477 31.350000 2231.000000 0.170000 0.000000                 
LRC_ARJD1_MT_016 EVENT            ARJD1_MT_30      27.652081 12.960000 1454.100000 0.590000 0.000000                 
LRC_ARJD1_MT_017 EVENT            ARJD1_MT_35      15.367270 5.160000 1558.900000 0.540000 0.000000                 
LRC_ARJD1_MT_018 EVENT            L_ARJD1_MT_14    50.660027 28.820000 1327.700000 0.400000 0.000000                 
LRC_ARJD1_MT_019 EVENT            ARJD1_MT_39      53.092098 22.830000 3026.800000 0.470000 0.000000                 
LRC_ARJD1_MT_020 EVENT            L_ARJD1_MT_15    68.638664 28.680000 1736.600000 0.170000 0.000000                 
LRC_ARJD1_MT_021 EVENT            L_ARJD1_MT_02    45.811415 85.290000 1427.800000 0.180000 0.000000                 

[SUBAREAS]
;;Subcatchment   N-Imperv   N-Perv     S-Imperv   S-Perv     PctZero    RouteTo    PctRouted 
;;-------------- ---------- ---------- ---------- ---------- ---------- ---------- ----------
LRC_ARJD1_BR1_001 0.100000   0.001000   0.050000   0.050000   25.000000  OUTLET    
LRC_ARJD1_BR2L1_001 0.100000   0.001000   0.050000   0.050000   25.000000  OUTLET    
LRC_ARJD1_BR2L1_002 0.100000   0.001000   0.050000   0.050000   25.000000  OUTLET    
LRC_ARJD1_BR2L1_003 0.100000   0.001000   0.050000   0.050000   25.000000  OUTLET    
LRC_ARJD1_BR2L1_004 0.100000   0.001000   0.050000   0.050000   25.000000  OUTLET    
LRC_ARJD1_BR2L1_005 0.100000   0.001000   0.050000   0.050000   25.000000  OUTLET    
LRC_ARJD1_BR2_001 0.100000   0.001000   0.050000   0.050000   25.000000  OUTLET    
LRC_ARJD1_BR2_002 0.100000   0.001000   0.050000   0.050000   25.000000  OUTLET    
LRC_ARJD1_BR2_003 0.100000   0.001000   0.050000   0.050000   25.000000  OUTLET    
LRC_ARJD1_BR2_004 0.100000   0.001000   0.050000   0.050000   25.000000  OUTLET    
LRC_ARJD1_BR2_005 0.100000   0.001000   0.050000   0.050000   25.000000  OUTLET    
LRC_ARJD1_BR2_006 0.100000   0.001000   0.050000   0.050000   25.000000  OUTLET    
LRC_ARJD1_BR2_007 0.100000   0.001000   0.050000   0.050000   25.000000  OUTLET    
LRC_ARJD1_BR2_008 0.100000   0.001000   0.050000   0.050000   25.000000  OUTLET    
LRC_ARJD1_BR2_009 0.100000   0.001000   0.050000   0.050000   25.000000  OUTLET    
LRC_ARJD1_BR2_010 0.100000   0.001000   0.050000   0.050000   25.000000  OUTLET    
LRC_ARJD1_BR3_001 0.100000   0.001000   0.050000   0.050000   25.000000  OUTLET    
LRC_ARJD1_BR4_001 0.100000   0.001000   0.050000   0.050000   25.000000  OUTLET    
LRC_ARJD1_BR4_002 0.100000   0.001000   0.050000   0.050000   25.000000  OUTLET    
LRC_ARJD1_BR5_001 0.100000   0.001000   0.050000   0.050000   25.000000  OUTLET    
LRC_ARJD1_BR5_002 0.100000   0.001000   0.050000   0.050000   25.000000  OUTLET    
LRC_ARJD1_MT_001 0.100000   0.001000   0.050000   0.050000   25.000000  OUTLET    
LRC_ARJD1_MT_002 0.100000   0.001000   0.050000   0.050000   25.000000  OUTLET    
LRC_ARJD1_MT_003 0.100000   0.001000   0.050000   0.050000   25.000000  OUTLET    
LRC_ARJD1_MT_004 0.100000   0.001000   0.050000   0.050000   25.000000  OUTLET    
LRC_ARJD1_MT_005 0.100000   0.001000   0.050000   0.050000   25.000000  OUTLET    
LRC_ARJD1_MT_006 0.100000   0.001000   0.050000   0.050000   25.000000  OUTLET    
LRC_ARJD1_MT_007 0.100000   0.001000   0.050000   0.050000   25.000000  OUTLET    
LRC_ARJD1_MT_008 0.100000   0.001000   0.050000   0.050000   25.000000  OUTLET    
LRC_ARJD1_MT_008A 0.100000   0.001000   0.050000   0.050000   25.000000  OUTLET    
LRC_ARJD1_MT_009 0.100000   0.001000   0.050000   0.050000   25.000000  OUTLET    
LRC_ARJD1_MT_010 0.100000   0.001000   0.050000   0.050000   25.000000  OUTLET    
LRC_ARJD1_MT_011 0.100000   0.001000   0.050000   0.050000   25.000000  OUTLET    
LRC_ARJD1_MT_012 0.100000   0.001000   0.050000   0.050000   25.000000  OUTLET    
LRC_ARJD1_MT_013 0.100000   0.001000   0.050000   0.050000   25.000000  OUTLET    
LRC_ARJD1_MT_014 0.100000   0.001000   0.050000   0.050000   25.000000  OUTLET    
LRC_ARJD1_MT_015 0.100000   0.001000   0.050000   0.050000   25.000000  OUTLET    
LRC_ARJD1_MT_016 0.100000   0.001000   0.050000   0.050000   25.000000  OUTLET    
LRC_ARJD1_MT_017 0.100000   0.001000   0.050000   0.050000   25.000000  OUTLET    
LRC_ARJD1_MT_018 0.100000   0.001000   0.050000   0.050000   25.000000  OUTLET    
LRC_ARJD1_MT_019 0.100000   0.001000   0.050000   0.050000   25.000000  OUTLET    
LRC_ARJD1_MT_020 0.100000   0.001000   0.050000   0.050000   25.000000  OUTLET    
LRC_ARJD1_MT_021 0.100000   0.001000   0.050000   0.050000   25.000000  OUTLET    

[INFILTRATION]
;;Subcatchment   MaxRate    MinRate    Decay      DryTime    MaxInfil  
;;-------------- ---------- ---------- ---------- ---------- ----------
LRC_ARJD1_BR1_001 3.000000   0.100000   0.050000   0.001000   0.000000  
LRC_ARJD1_BR2L1_001 3.000000   0.100000   0.050000   0.001000   0.000000  
LRC_ARJD1_BR2L1_002 3.000000   0.100000   0.050000   0.001000   0.000000  
LRC_ARJD1_BR2L1_003 3.000000   0.100000   0.050000   0.001000   0.000000  
LRC_ARJD1_BR2L1_004 3.000000   0.100000   0.050000   0.001000   0.000000  
LRC_ARJD1_BR2L1_005 3.000000   0.100000   0.050000   0.001000   0.000000  
LRC_ARJD1_BR2_001 3.000000   0.100000   0.050000   0.001000   0.000000  
LRC_ARJD1_BR2_002 3.000000   0.100000   0.050000   0.001000   0.000000  
LRC_ARJD1_BR2_003 3.000000   0.100000   0.050000   0.001000   0.000000  
LRC_ARJD1_BR2_004 3.000000   0.100000   0.050000   0.001000   0.000000  
LRC_ARJD1_BR2_005 3.000000   0.100000   0.050000   0.001000   0.000000  
LRC_ARJD1_BR2_006 3.000000   0.100000   0.050000   0.001000   0.000000  
LRC_ARJD1_BR2_007 3.000000   0.100000   0.050000   0.001000   0.000000  
LRC_ARJD1_BR2_008 3.000000   0.100000   0.050000   0.001000   0.000000  
LRC_ARJD1_BR2_009 3.000000   0.100000   0.050000   0.001000   0.000000  
LRC_ARJD1_BR2_010 3.000000   0.100000   0.050000   0.001000   0.000000  
LRC_ARJD1_BR3_001 3.000000   0.100000   0.050000   0.001000   0.000000  
LRC_ARJD1_BR4_001 3.000000   0.100000   0.050000   0.001000   0.000000  
LRC_ARJD1_BR4_002 3.000000   0.100000   0.050000   0.001000   0.000000  
LRC_ARJD1_BR5_001 3.000000   0.100000   0.050000   0.001000   0.000000  
LRC_ARJD1_BR5_002 3.000000   0.100000   0.050000   0.001000   0.000000  
LRC_ARJD1_MT_001 3.000000   0.100000   0.050000   0.001000   0.000000  
LRC_ARJD1_MT_002 3.000000   0.100000   0.050000   0.001000   0.000000  
LRC_ARJD1_MT_003 3.000000   0.100000   0.050000   0.001000   0.000000  
LRC_ARJD1_MT_004 3.000000   0.100000   0.050000   0.001000   0.000000  
LRC_ARJD1_MT_005 3.000000   0.100000   0.050000   0.001000   0.000000  
LRC_ARJD1_MT_006 3.000000   0.100000   0.050000   0.001000   0.000000  
LRC_ARJD1_MT_007 3.000000   0.100000   0.050000   0.001000   0.000000  
LRC_ARJD1_MT_008 3.000000   0.100000   0.050000   0.001000   0.000000  
LRC_ARJD1_MT_008A 3.000000   0.100000   0.050000   0.001000   0.000000  
LRC_ARJD1_MT_009 3.000000   0.100000   0.050000   0.001000   0.000000  
LRC_ARJD1_MT_010 3.000000   0.100000   0.050000   0.001000   0.000000  
LRC_ARJD1_MT_011 3.000000   0.100000   0.050000   0.001000   0.000000  
LRC_ARJD1_MT_012 3.000000   0.100000   0.050000   0.001000   0.000000  
LRC_ARJD1_MT_013 3.000000   0.100000   0.050000   0.001000   0.000000  
LRC_ARJD1_MT_014 3.000000   0.100000   0.050000   0.001000   0.000000  
LRC_ARJD1_MT_015 3.000000   0.100000   0.050000   0.001000   0.000000  
LRC_ARJD1_MT_016 3.000000   0.100000   0.050000   0.001000   0.000000  
LRC_ARJD1_MT_017 3.000000   0.100000   0.050000   0.001000   0.000000  
LRC_ARJD1_MT_018 3.000000   0.100000   0.050000   0.001000   0.000000  
LRC_ARJD1_MT_019 3.000000   0.100000   0.050000   0.001000   0.000000  
LRC_ARJD1_MT_020 3.000000   0.100000   0.050000   0.001000   0.000000  
LRC_ARJD1_MT_021 3.000000   0.100000   0.050000   0.001000   0.000000  

[JUNCTIONS]
;;Name           Elevation  MaxDepth   InitDepth  SurDepth   Aponded   
;;-------------- ---------- ---------- ---------- ---------- ----------
ARJD1_BR1_01     901.760000 12.240000  0.000000   3.000000   100.000000
ARJD1_BR1_02     901.620000 12.380000  0.000000   3.000000   100.000000
ARJD1_BR1_03     902.330000 11.670000  0.000000   3.000000   100.000000
ARJD1_BR1_04     901.730000 12.270000  0.000000   3.000000   100.000000
ARJD1_BR2L1_03   900.440000 9.560000   0.000000   13.000000  100.000000
; Rendorva Rd
ARJD1_BR2L1_06   901.800000 8.200000   0.000000   3.000000   100.000000
ARJD1_BR2L1_07   901.500000 8.500000   0.000000   3.000000   100.000000
ARJD1_BR2L1_09   901.740000 8.260000   0.000000   3.000000   100.000000
ARJD1_BR2L1_10   901.550000 8.450000   0.000000   3.000000   100.000000
ARJD1_BR2L1_11   901.850000 8.150000   0.000000   3.000000   100.000000
ARJD1_BR2L1_12   901.980000 8.020000   0.000000   3.000000   100.000000
ARJD1_BR2L1_13   901.400000 8.600000   0.000000   3.000000   100.000000
ARJD1_BR2L1_14   900.500000 9.500000   0.000000   3.000000   100.000000
ARJD1_BR2_01     899.700000 10.300000  0.000000   3.000000   100.000000
; W. 35 W Service Road
ARJD1_BR2_02     900.220000 9.780000   0.000000   3.000000   100.000000
ARJD1_BR2_03     900.310000 9.690000   0.000000   3.000000   100.000000
ARJD1_BR2_04     900.380000 9.620000   0.000000   3.000000   100.000000
ARJD1_BR2_05     900.020000 9.980000   0.000000   3.000000   100.000000
ARJD1_BR2_06     901.350000 8.650000   0.000000   3.000000   100.000000
ARJD1_BR2_07     901.700000 8.300000   0.000000   3.000000   100.000000
ARJD1_BR2_08     901.380000 8.620000   0.000000   3.000000   100.000000
ARJD1_BR2_09     901.050000 8.950000   0.000000   3.000000   100.000000
; Naples Street, NE
ARJD1_BR2_10     901.280000 8.720000   0.000000   3.000000   100.000000
ARJD1_BR2_12     901.460000 8.540000   0.000000   3.000000   100.000000
ARJD1_BR2_13     901.390000 8.610000   0.000000   3.000000   100.000000
ARJD1_BR2_14     901.510000 8.490000   0.000000   3.000000   100.000000
ARJD1_BR2_15     902.880000 7.120000   0.000000   3.000000   100.000000
ARJD1_BR2_15A    902.200000 9.800000   0.000000   3.000000   100.000000
ARJD1_BR2_16     902.540000 7.460000   0.000000   3.000000   100.000000
ARJD1_BR2_17     902.810000 7.190000   0.000000   3.000000   100.000000
ARJD1_BR2_18     902.330000 7.670000   0.000000   3.000000   100.000000
ARJD1_BR2_19     900.860000 9.140000   0.000000   3.000000   100.000000
ARJD1_BR2_20     901.120000 8.880000   0.000000   3.000000   100.000000
ARJD1_BR2_21     902.550000 7.450000   0.000000   3.000000   100.000000
; Survey showed 898.59, but then inverted. Plans show 898.3
ARJD1_BR3_01     898.500000 11.500000  0.000000   3.000000   100.000000
; Plans show pipe is 388 feet long
ARJD1_BR3_02     898.500000 11.500000  0.000000   3.000000   100.000000
ARJD1_BR3_03     898.440000 11.560000  0.000000   3.000000   100.000000
ARJD1_BR3_06     899.440000 10.560000  0.000000   3.000000   100.000000
ARJD1_BR5_01     894.680000 5.320000   0.000000   3.000000   100.000000
ARJD1_BR5_02     896.060000 8.940000   0.000000   3.000000   100.000000
ARJD1_BR5_03     897.530000 7.470000   0.000000   3.000000   100.000000
ARJD1_BR5_04     897.030000 7.970000   0.000000   3.000000   100.000000
ARJD1_BR5_05     898.500000 6.500000   0.000000   3.000000   100.000000
; Outfall
ARJD1_MT_01      875.870000 29.130000  0.000000   3.000000   100.000000
ARJD1_MT_02      878.920000 26.080000  0.000000   3.000000   100.000000
ARJD1_MT_04      888.370000 6.630000   0.000000   3.000000   100.000000
ARJD1_MT_04A     890.490000 17.510000  0.000000   3.000000   100.000000
ARJD1_MT_05      892.370000 12.630000  0.000000   3.000000   100.000000
ARJD1_MT_06      892.340000 12.660000  0.000000   3.000000   100.000000
ARJD1_MT_07      891.170000 13.830000  0.000000   3.000000   100.000000
ARJD1_MT_08      891.360000 13.640000  0.000000   3.000000   100.000000
ARJD1_MT_09      893.030000 11.970000  0.000000   3.000000   100.000000
; Intersection with Branch 5
ARJD1_MT_10      893.840000 11.160000  0.000000   3.000000   100.000000
ARJD1_MT_11      894.650000 10.350000  0.000000   3.000000   100.000000
ARJD1_MT_12      895.440000 9.560000   0.000000   3.000000   100.000000
ARJD1_MT_13      895.660000 9.340000   0.000000   3.000000   100.000000
ARJD1_MT_14      896.240000 11.760000  0.000000   3.000000   100.000000
ARJD1_MT_15      896.400000 11.600000  0.000000   3.000000   100.000000
; Intersection with Private Ditches
ARJD1_MT_16      896.205000 8.795000   0.000000   3.000000   100.000000
ARJD1_MT_17      896.560000 8.440000   0.000000   3.000000   100.000000
ARJD1_MT_18      897.040000 7.960000   0.000000   3.000000   100.000000
ARJD1_MT_19      896.320000 8.680000   0.000000   3.000000   100.000000
; Invert estimated
ARJD1_MT_20      896.280000 8.720000   0.000000   3.000000   100.000000
ARJD1_MT_21      896.240000 8.760000   0.000000   3.000000   100.000000
ARJD1_MT_22      896.840000 8.160000   0.000000   3.000000   100.000000
; Intersection with Branch 3
ARJD1_MT_23      898.110000 6.890000   0.000000   3.000000   100.000000
ARJD1_MT_24      899.390000 8.610000   0.000000   3.000000   100.000000
ARJD1_MT_25      897.990000 9.010000   0.000000   3.000000   100.000000
ARJD1_MT_26      898.360000 8.640000   0.000000   3.000000   100.000000
ARJD1_MT_27      898.030000 8.970000   0.000000   3.000000   100.000000
ARJD1_MT_28      897.690000 7.310000   0.000000   3.000000   100.000000
ARJD1_MT_29      898.220000 6.780000   0.000000   3.000000   100.000000
ARJD1_MT_30      898.880000 6.120000   0.000000   3.000000   100.000000
ARJD1_MT_31      898.960000 6.040000   0.000000   3.000000   100.000000
ARJD1_MT_32      899.670000 5.330000   0.000000   3.000000   100.000000
ARJD1_MT_33      899.720000 5.280000   0.000000   3.000000   100.000000
ARJD1_MT_34      898.870000 6.130000   0.000000   3.000000   100.000000
ARJD1_MT_35      899.400000 5.600000   0.000000   3.000000   100.000000
ARJD1_MT_36      900.270000 4.730000   0.000000   3.000000   100.000000
ARJD1_MT_37      900.440000 4.560000   0.000000   3.000000   100.000000
ARJD1_MT_38      900.760000 4.240000   0.000000   3.000000   100.000000
; Intersection with Branch 1
ARJD1_MT_39      901.000000 9.000000   0.000000   3.000000   100.000000
ARJD1_MT_40      901.240000 8.760000   0.000000   3.000000   100.000000
; 36" RCP
ARJD1_MT_41      901.320000 8.680000   0.000000   3.000000   100.000000
; 30" RCP
ARJD1_MT_42      903.320000 6.680000   0.000000   3.000000   100.000000
; 30" RCP
ARJD1_MT_43      903.710000 8.290000   0.000000   3.000000   100.000000
; Upper End of Branch 1
ARJD1_MT_44      906.050000 8.950000   0.000000   3.000000   100.000000
L_ARJD1_MT_01A   906.640000 8.360000   0.000000   3.000000   100.000000
L_ARJD1_MT_02    906.100000 8.900000   0.000000   3.000000   100.000000
L_ARJD1_MT_05    892.370000 7.630000   0.000000   3.000000   100.000000
SPLIT_BR2_004    910.000000 6.000000   0.000000   0.000000   0.000000  
SPLIT_BR2_007    910.000000 5.000000   0.000000   0.000000   0.000000  
SPLIT_BR2_008    912.000000 8.000000   0.000000   0.000000   0.000000  
SPLIT_BR5_002    902.000000 18.000000  0.000000   3.000000   100.000000
SPLIT_MT_005     995.000000 10.000000  0.000000   0.000000   0.000000  

[OUTFALLS]
;;Name           Elevation  Type       Stage Data       Gated    Route To        
;;-------------- ---------- ---------- ---------------- -------- ----------------
ARJD1_MT-00      850.000000 TIMESERIES RICE_CREEK_10YR_STAGE NO                       

[STORAGE]
;;Name           Elev.    MaxDepth   InitDepth  Shape      Curve Name/Params            N/A      Fevap    Psi      Ksat     IMD     
;;-------------- -------- ---------- ----------- ---------- ---------------------------- -------- --------          -------- --------
ARJD1_BR1_05     902.160000 20.000000  0.000000   TABULAR    BR1_001                      0.000000 0.000000
ARJD1_BR2L1_02   901.000000 20.000000  0.000000   TABULAR    BR2L1_001                    0.000000 0.000000
ARJD1_BR2L1_04   900.000000 20.000000  0.000000   TABULAR    BR2L1_002                    0.000000 0.000000
; storage node for BR2L1_003
ARJD1_BR2L1_15   900.000000 20.000000  1.660000   TABULAR    BR2L1_003                    0.000000 0.000000
ARJD1_BR2L1_16   899.000000 20.000000  2.660000   TABULAR    BR2L1_004                    0.000000 0.000000
ARJD1_BR2L1_17   905.000000 20.000000  0.000000   TABULAR    BR2_005                      0.000000 0.000000
ARJD1_BR2L1_18   900.000000 20.000000  0.000000   TABULAR    BR2L1_005                    0.000000 0.000000
ARJD1_BR2_11     901.000000 20.000000  0.000000   TABULAR    BR2_006                      0.000000 0.000000
ARJD1_BR2_22     901.660000 20.000000  0.000000   TABULAR    BR2_009                      0.000000 0.000000
ARJD1_BR3_04     897.000000 15.000000  1.740000   TABULAR    MT_013                       0.000000 0.000000
ARJD1_BR3_07     899.000000 15.000000  0.500000   TABULAR    BR3_001                      0.000000 0.000000
ARJD1_BR4_01     897.000000 20.000000  0.000000   TABULAR    BR4_001                      0.000000 0.000000
; Storage for BR5_002
ARJD1_BR5_06     897.000000 20.000000  0.000000   TABULAR    BR5_002                      0.000000 0.000000
ARJD1_MT_03      882.640000 20.000000  0.000000   TABULAR    MT_001                       0.000000 0.000000
; Lovell Rd Upstream culvert
L_ARJD1_BR2_01   902.000000 20.000000  1.110000   TABULAR    BR2_010                      0.000000 0.000000
L_ARJD1_MT-06    896.290000 20.000000  0.000000   TABULAR    MT_009                       0.000000 0.000000
; 48" stormsewer Moundview plan
L_ARJD1_MT-07    897.000000 20.000000  0.000000   TABULAR    MT_010                       0.000000 0.000000
L_ARJD1_MT_01    896.000000 20.000000  0.000000   TABULAR    MT_004                       0.000000 0.000000
; Private Ditch corssing HWY 10
L_ARJD1_MT_03    897.550000 20.000000  0.000000   TABULAR    MT_006                       0.000000 0.000000
L_ARJD1_MT_04    901.000000 20.000000  0.000000   TABULAR    MT_007                       0.000000 0.000000
L_ARJD1_MT_08    897.990000 20.000000  0.000000   TABULAR    MT_011                       0.000000 0.000000
L_ARJD1_MT_09    897.000000 20.000000  0.000000   TABULAR    MT_008                       0.000000 0.000000
; 42" stormsewer  Moundview plan
L_ARJD1_MT_10    899.000000 20.000000  0.000000   TABULAR    MT_012                       0.000000 0.000000
L_ARJD1_MT_11    897.000000 20.000000  0.000000   TABULAR    BR4_001                      0.000000 0.000000
L_ARJD1_MT_12    898.000000 20.000000  0.000000   TABULAR    MT_014                       0.000000 0.000000
L_ARJD1_MT_13    897.000000 20.000000  1.070000   TABULAR    MT_015                       0.000000 0.000000
L_ARJD1_MT_14    900.000000 20.000000  1.000000   TABULAR    MT_018                       0.000000 0.000000
; bottom of storage curve assumed
L_ARJD1_MT_15    904.000000 20.000000  0.000000   TABULAR    MT_020                       0.000000 0.000000

[CONDUITS]
;;Name           From Node        To Node          Length     Roughness  InOffset   OutOffset  InitFlow   MaxFlow   
;;-------------- ---------------- ---------------- ---------- ---------- ---------- ---------- ---------- ----------
ARJD1_BR1-01     ARJD1_BR1_01     ARJD1_MT_39      43.279730  0.010000   0.000000   0.000000   0.000000   0.000000  
ARJD1_BR1-02     ARJD1_BR1_02     ARJD1_BR1_01     391.151670 0.010000   0.000000   0.000000   0.000000   0.000000  
ARJD1_BR1-03     ARJD1_BR1_03     ARJD1_BR1_02     275.509892 0.010000   0.000000   0.000000   0.000000   0.000000  
ARJD1_BR1-04     ARJD1_BR1_04     ARJD1_BR1_03     202.364923 0.010000   0.000000   0.000000   0.000000   0.000000  
ARJD1_BR1-05     ARJD1_BR1_05     ARJD1_BR1_04     63.107870  0.013000   0.000000   0.000000   0.000000   0.000000  
ARJD1_BR2-01     ARJD1_BR2_01     ARJD1_MT_27      655.943099 0.010000   0.000000   0.000000   0.000000   0.000000  
ARJD1_BR2-02     ARJD1_BR2_02     ARJD1_BR2_01     690.212350 0.010000   0.000000   0.000000   0.000000   0.000000  
ARJD1_BR2-03A    ARJD1_BR2_03     ARJD1_BR2_02     92.000000  0.013000   0.000000   0.000000   0.000000   0.000000  
ARJD1_BR2-03B    ARJD1_BR2_03     ARJD1_BR2_02     92.000000  0.013000   0.170000   0.210000   0.000000   0.000000  
ARJD1_BR2-04A    ARJD1_BR2_04     ARJD1_BR2_03     164.000000 0.013000   0.110000   0.320000   0.000000   0.000000  
ARJD1_BR2-04B    ARJD1_BR2_04     ARJD1_BR2_03     164.000000 0.013000   0.000000   0.490000   0.000000   0.000000  
ARJD1_BR2-05A    ARJD1_BR2_05     ARJD1_BR2_04     160.000000 0.013000   0.000000   0.170000   0.000000   0.000000  
ARJD1_BR2-05B    ARJD1_BR2_05     ARJD1_BR2_04     253.046340 0.013000   0.360000   0.130000   0.000000   0.000000  
ARJD1_BR2-06     ARJD1_BR2_06     ARJD1_BR2_05     690.941422 0.010000   0.000000   0.000000   0.000000   0.000000  
ARJD1_BR2-07     ARJD1_BR2_07     ARJD1_BR2_06     157.047956 0.013000   0.000000   0.000000   0.000000   0.000000  
ARJD1_BR2-08     ARJD1_BR2_08     ARJD1_BR2_07     485.799967 0.010000   0.000000   0.000000   0.000000   0.000000  
ARJD1_BR2-09     ARJD1_BR2_09     ARJD1_BR2_08     160.461858 0.010000   0.000000   0.000000   0.000000   0.000000  
ARJD1_BR2-10     ARJD1_BR2_10     ARJD1_BR2_09     221.893741 0.010000   0.000000   0.000000   0.000000   0.000000  
ARJD1_BR2-11     ARJD1_BR2_11     ARJD1_BR2_10     67.700659  0.024000   0.700000   0.000000   0.000000   0.000000  
ARJD1_BR2-11_OF  ARJD1_BR2_11     ARJD1_BR2_10     75.338958  0.010000   4.800000   4.520000   0.000000   0.000000  
ARJD1_BR2-12     ARJD1_BR2_12     ARJD1_BR2_11     110.194297 0.013000   0.000000   0.000000   0.000000   0.000000  
; overflow
ARJD1_BR2-12_OF  ARJD1_BR2_12     ARJD1_BR2_11     30.000000  0.010000   4.910000   5.370000   0.000000   0.000000  
ARJD1_BR2-13     ARJD1_BR2_13     ARJD1_BR2_12     471.449804 0.010000   0.000000   0.000000   0.000000   0.000000  
ARJD1_BR2-14     ARJD1_BR2_14     ARJD1_BR2_13     60.483317  0.024000   0.000000   0.000000   0.000000   0.000000  
ARJD1_BR2-15     ARJD1_BR2_15     ARJD1_BR2_15A    730.000000 0.010000   0.000000   -0.010000  0.000000   0.000000  
ARJD1_BR2-15A    ARJD1_BR2_15A    ARJD1_BR2_14     731.000000 0.010000   -0.010000  0.000000   0.000000   0.000000  
ARJD1_BR2-16     ARJD1_BR2_16     ARJD1_BR2_15     60.609562  0.024000   0.000000   0.000000   0.000000   0.000000  
ARJD1_BR2-17     ARJD1_BR2_17     ARJD1_BR2_16     67.952848  0.010000   0.000000   0.000000   0.000000   0.000000  
ARJD1_BR2-18     ARJD1_BR2_18     ARJD1_BR2_17     60.035976  0.024000   0.000000   0.000000   0.000000   0.000000  
ARJD1_BR2-19     ARJD1_BR2_19     ARJD1_BR2_18     119.495282 0.010000   0.000000   0.000000   0.000000   0.000000  
ARJD1_BR2-20     ARJD1_BR2_20     ARJD1_BR2_19     40.070456  0.024000   0.000000   0.000000   0.000000   0.000000  
ARJD1_BR2-20_OF  ARJD1_BR2_20     ARJD1_BR2_19     51.545980  0.010000   4.880000   5.140000   0.000000   0.000000  
ARJD1_BR2-21     ARJD1_BR2_21     ARJD1_BR2_20     546.655400 0.010000   0.000000   0.000000   0.000000   0.000000  
ARJD1_BR2-22     ARJD1_BR2_22     ARJD1_BR2_21     153.934050 0.013000   0.000000   0.000000   0.000000   0.000000  
ARJD1_BR2L1-02A  ARJD1_BR2L1_02   ARJD1_BR2_05     79.000000  0.013000   0.130000   0.940000   0.000000   0.000000  
ARJD1_BR2L1-02B  ARJD1_BR2L1_02   ARJD1_BR2_05     79.000000  0.013000   0.070000   0.860000   0.000000   0.000000  
ARJD1_BR2L1-03   ARJD1_BR2L1_03   ARJD1_BR2L1_02   948.690114 0.013000   0.000000   0.000000   0.000000   0.000000  
ARJD1_BR2L1-04   ARJD1_BR2L1_04   ARJD1_BR2L1_03   91.270471  0.024000   0.760000   0.000000   0.000000   0.000000  
ARJD1_BR2L1-06   ARJD1_BR2L1_06   ARJD1_BR2L1_04   1332.670794 0.010000   0.000000   0.000000   0.000000   0.000000  
ARJD1_BR2L1-07   ARJD1_BR2L1_07   ARJD1_BR2L1_06   65.331876  0.024000   0.000000   0.000000   0.000000   0.000000  
ARJD1_BR2L1-09   ARJD1_BR2L1_09   ARJD1_BR2L1_07   76.903125  0.024000   0.000000   0.140000   0.000000   0.000000  