[TITLE]
;;Project Title/Notes

[OPTIONS]
;;Option             Value
FLOW_UNITS           LPS
INFILTRATION         HORTON
FLOW_ROUTING         DYNWAVE
LINK_OFFSETS         DEPTH
MIN_SLOPE            0
ALLOW_PONDING        NO
SKIP_STEADY_STATE    NO

START_DATE           01/01/2002
START_TIME           00:00:00
REPORT_START_DATE    01/01/2002
REPORT_START_TIME    00:00:00
END_DATE             01/01/2002
END_TIME             12:00:00
SWEEP_START          01/01
SWEEP_END            12/31
DRY_DAYS             5.000000
REPORT_STEP          00:05:00
WET_STEP             01:00:00
DRY_STEP             23:00:00
ROUTING_STEP         0:05:00 

INERTIAL_DAMPING     NONE
NORMAL_FLOW_LIMITED  BOTH
FORCE_MAIN_EQUATION  H-W
VARIABLE_STEP        0.75
LENGTHENING_STEP     0
MIN_SURFAREA         1.14
MAX_TRIALS           8
HEAD_TOLERANCE       0.0015
SYS_FLOW_TOL         5
LAT_FLOW_TOL         5
MINIMUM_STEP         0.5
THREADS              1

[EVAPORATION]
;;Data Source    Parameters
;;-------------- ----------------
CONSTANT         0.0
DRY_ONLY         NO

[JUNCTIONS]
;;Name           Elevation  MaxDepth   InitDepth  SurDepth   Aponded   
;;-------------- ---------- ---------- ---------- ---------- ----------
MH_000           42.650919  8.407209   0.000000   0.000000   0.000000  
MH_001           10.793963  3.459064   0.000000   0.000000   0.000000  
MH_002           10.498688  3.594835   0.000000   0.000000   0.000000  
MH_003           10.170604  4.001004   0.000000   0.000000   0.000000  
MH_004           0.000000   0.000000   0.000000   0.000000   0.000000  
MH_005           0.000000   0.000000   0.000000   0.000000   0.000000  
MH_006           0.000000   0.000000   0.000000   0.000000   0.000000  
MH_007           0.000000   0.000000   0.000000   0.000000   0.000000  
MH_008           41.896325  9.173415   0.000000   0.000000   0.000000  
MH_009           41.469816  6.934511   0.000000   0.000000   0.000000  
MH_010           41.174541  8.717350   0.000000   0.000000   0.000000  
MH_011           33.431759  6.744663   0.000000   0.000000   0.000000  
MH_012           33.628609  6.555008   0.000000   0.000000   0.000000  
MH_013           69.783465  2.215726   0.000000   0.000000   0.000000  
MH_014           69.356955  3.611078   0.000000   0.000000   0.000000  
MH_015           68.602362  1.103937   0.000000   0.000000   0.000000  
MH_016           65.255906  4.445968   0.000000   0.000000   0.000000  
MH_017           63.156168  7.742392   0.000000   0.000000   0.000000  
MH_018           62.073491  5.404422   0.000000   0.000000   0.000000  
MH_019           61.286089  5.138739   0.000000   0.000000   0.000000  
MH_020           65.354331  4.327394   0.000000   0.000000   0.000000  
MH_021           67.093176  2.471376   0.000000   0.000000   0.000000  
MH_022           55.971129  5.546091   0.000000   0.000000   0.000000  
MH_023           61.811024  4.140613   0.000000   0.000000   0.000000  
MH_024           60.137795  4.467964   0.000000   0.000000   0.000000  
MH_025           63.877953  7.430664   0.000000   0.000000   0.000000  
MH_026           50.000000  5.892765   0.000000   0.000000   0.000000  
MH_027           48.982940  6.048119   0.000000   0.000000   0.000000  
MH_028           46.489501  3.650575   0.000000   0.000000   0.000000  
MH_029           57.185039  2.681485   0.000000   0.000000   0.000000  
MH_030           59.481627  2.023065   0.000000   0.000000   0.000000  
MH_031           55.249344  5.663956   0.000000   0.000000   0.000000  
MH_032           58.333333  4.317740   0.000000   0.000000   0.000000  
MH_033           62.270341  5.398147   0.000000   0.000000   0.000000  
MH_034           63.221785  3.892084   0.000000   0.000000   0.000000  
MH_035           63.320210  3.924007   0.000000   0.000000   0.000000  
MH_036           42.979003  5.415967   0.000000   0.000000   0.000000  
MH_037           52.624672  3.413914   0.000000   0.000000   0.000000  
MH_038           43.208661  5.189937   0.000000   0.000000   0.000000  
MH_039           45.603675  8.014340   0.000000   0.000000   0.000000  
MH_041           54.593176  4.887186   0.000000   0.000000   0.000000  
MH_042           55.511811  2.704780   0.000000   0.000000   0.000000  
MH_043           56.135171  10.281844  0.000000   0.000000   0.000000  
MH_044           58.267717  8.196822   0.000000   0.000000   0.000000  
MH_045           62.664042  3.976285   0.000000   0.000000   0.000000  
MH_046           41.404199  5.337836   0.000000   0.000000   0.000000  
MH_048           53.346457  4.534021   0.000000   0.000000   0.000000  
MH_049           53.871391  4.941075   0.000000   0.000000   0.000000  
MH_050           64.304462  4.519673   0.000000   0.000000   0.000000  
MH_051           53.576115  6.284084   0.000000   0.000000   0.000000  
MH_052           54.593176  5.267385   0.000000   0.000000   0.000000  
MH_053           52.001312  9.220307   0.000000   0.000000   0.000000  
MH_054           56.594488  1.631392   0.000000   0.000000   0.000000  
MH_055           57.578740  2.085242   0.000000   0.000000   0.000000  
MH_056           58.464567  2.425169   0.000000   0.000000   0.000000  
MH_057           51.541995  6.679814   0.000000   0.000000   0.000000  
MH_058           49.507874  13.624233  0.000000   0.000000   0.000000  
MH_059           53.149606  6.711844   0.000000   0.000000   0.000000  
MH_060           56.233596  3.626931   0.000000   0.000000   0.000000  
MH_061           56.430446  4.247433   0.000000   0.000000   0.000000  
MH_062           55.774278  4.905722   0.000000   0.000000   0.000000  
MH_063           57.447507  4.052146   0.000000   0.000000   0.000000  
MH_064           59.350394  2.149682   0.000000   0.000000   0.000000  
MH_065           60.006562  4.761443   0.000000   0.000000   0.000000  
MH_066           57.972441  4.677797   0.000000   0.000000   0.000000  
MH_067           48.261155  8.030028   0.000000   0.000000   0.000000  
MH_068           45.439633  8.188285   0.000000   0.000000   0.000000  
MH_069           41.535433  5.542837   0.000000   0.000000   0.000000  
MH_070           43.569554  7.585231   0.000000   0.000000   0.000000  
MH_071           40.157480  4.946074   0.000000   0.000000   0.000000  
MH_072           39.763780  5.337390   0.000000   0.000000   0.000000  
MH_074           38.320210  5.134433   0.000000   0.000000   0.000000  
MH_076           51.738845  4.060143   0.000000   0.000000   0.000000  
MH_077           53.543307  6.369951   0.000000   0.000000   0.000000  
MH_078           55.577428  5.706076   0.000000   0.000000   0.000000  
MH_079           54.363517  5.645398   0.000000   0.000000   0.000000  
MH_080           56.003937  4.024063   0.000000   0.000000   0.000000  
MH_081           52.788714  3.775728   0.000000   0.000000   0.000000  
MH_082           36.351706  5.467584   0.000000   0.000000   0.000000  
MH_086           48.851706  3.530637   0.000000   0.000000   0.000000  
MH_087           49.934383  8.287121   0.000000   0.000000   0.000000  
MH_088           50.164042  8.060480   0.000000   0.000000   0.000000  
MH_089           52.362205  5.860009   0.000000   0.000000   0.000000  
MH_090           56.069554  1.329677   0.000000   0.000000   0.000000  
MH_091           54.921260  3.859948   0.000000   0.000000   0.000000  
MH_092           50.524934  2.769526   0.000000   0.000000   0.000000  
MH_093           52.132546  1.257041   0.000000   0.000000   0.000000  
MH_094           52.624672  3.568031   0.000000   0.000000   0.000000  
MH_095           35.465879  6.351916   0.000000   0.000000   0.000000  
MH_096           46.653543  3.635935   0.000000   0.000000   0.000000  
MH_097           53.149606  4.688342   0.000000   0.000000   0.000000  
MH_098           48.129921  8.538105   0.000000   0.000000   0.000000  
MH_099           48.786089  9.914617   0.000000   0.000000   0.000000  
MH_100           47.112861  6.200436   0.000000   0.000000   0.000000  
MH_101           44.750656  5.189125   0.000000   0.000000   0.000000  
MH_102           44.947507  4.966212   0.000000   0.000000   0.000000  
MH_103           45.078740  4.861041   0.000000   0.000000   0.000000  
MH_104           43.274278  7.802970   0.000000   0.000000   0.000000  
MH_105           45.964567  4.961939   0.000000   0.000000   0.000000  
MH_106           43.208661  8.057300   0.000000   0.000000   0.000000  
MH_108           43.635171  7.916900   0.000000   0.000000   0.000000  
MH_109           47.736220  4.820279   0.000000   0.000000   0.000000  
MH_110           46.391076  6.893214   0.000000   0.000000   0.000000  
MH_111           47.080052  6.066734   0.000000   0.000000   0.000000  
MH_119           31.889764  6.547618   0.000000   0.000000   0.000000  
MH_121           34.645669  6.777404   0.000000   0.000000   0.000000  
MH_122           34.645669  6.051795   0.000000   0.000000   0.000000  
MH_124           34.711286  5.481814   0.000000   0.000000   0.000000  
MH_126           34.317585  5.865795   0.000000   0.000000   0.000000  
MH_131           39.304462  7.010968   0.000000   0.000000   0.000000  
MH_132           42.585302  3.504774   0.000000   0.000000   0.000000  
MH_133           45.045932  13.123269  0.000000   0.000000   0.000000  
MH_134           50.885827  2.285876   0.000000   0.000000   0.000000  
MH_135           52.526247  3.295469   0.000000   0.000000   0.000000  
MH_136           55.118110  4.233964   0.000000   0.000000   0.000000  
MH_137           56.364829  1.861493   0.000000   0.000000   0.000000  
MH_138           49.475066  6.477784   0.000000   0.000000   0.000000  
MH_139           54.625984  4.192063   0.000000   0.000000   0.000000  
MH_140           46.686352  3.935650   0.000000   0.000000   0.000000  
MH_141           47.834646  3.338217   0.000000   0.000000   0.000000  
MH_142           48.129921  3.416450   0.000000   0.000000   0.000000  
MH_143           48.523622  3.031252   0.000000   0.000000   0.000000  
MH_144           48.950131  2.737976   0.000000   0.000000   0.000000  
MH_145           49.311024  2.585510   0.000000   0.000000   0.000000  
MH_146           49.770341  2.262961   0.000000   0.000000   0.000000  
MH_147           45.800525  4.754815   0.000000   0.000000   0.000000  
MH_148           43.897638  5.081881   0.000000   0.000000   0.000000  
MH_149           42.257218  6.122783   0.000000   0.000000   0.000000  
MH_150           41.732283  9.280355   0.000000   0.000000   0.000000  
MH_151           44.291339  10.635964  0.000000   0.000000   0.000000  
MH_152           42.290026  8.952280   0.000000   0.000000   0.000000  
MH_153           44.881890  7.274955   0.000000   0.000000   0.000000  
MH_155           0.000000   0.000000   0.000000   0.000000   0.000000  
MH_157           38.385827  5.807376   0.000000   0.000000   0.000000  
MH_158           45.505249  8.755508   0.000000   0.000000   0.000000  
MH_161           29.330709  6.432620   0.000000   0.000000   0.000000  
MH_163           29.494751  6.356548   0.000000   0.000000   0.000000  
MH_164           30.643045  6.089480   0.000000   0.000000   0.000000  
MH_167           35.072178  3.888912   0.000000   0.000000   0.000000  
MH_168           42.749344  3.951301   0.000000   0.000000   0.000000  
MH_169           50.590551  3.821898   0.000000   0.000000   0.000000  
MH_170           54.265092  5.135032   0.000000   0.000000   0.000000  
MH_171           55.807087  3.657272   0.000000   0.000000   0.000000  
MH_172           49.376640  8.592133   0.000000   0.000000   0.000000  
MH_173           51.345144  4.580088   0.000000   0.000000   0.000000  
MH_174           53.641732  2.283500   0.000000   0.000000   0.000000  
MH_175           45.374016  9.396187   0.000000   0.000000   0.000000  
MH_176           42.749344  4.779861   0.000000   0.000000   0.000000  
MH_177           38.812336  5.113594   0.000000   0.000000   0.000000  
MH_178           40.616798  7.562020   0.000000   0.000000   0.000000  
MH_179           45.144357  3.238353   0.000000   0.000000   0.000000  
MH_180           27.559055  5.301621   0.000000   0.000000   0.000000  
MH_181           31.660105  3.542913   0.000000   0.000000   0.000000  
MH_182           30.839895  4.162890   0.000000   0.000000   0.000000  
MH_183           29.527559  4.138129   0.000000   0.000000   0.000000  
MH_184           25.393701  5.002219   0.000000   0.000000   0.000000  
MH_185           26.935696  3.808719   0.000000   0.000000   0.000000  
MH_186           34.087927  4.466326   0.000000   0.000000   0.000000  
MH_187           26.049869  4.259148   0.000000   0.000000   0.000000  
MH_190           40.255906  4.403129   0.000000   0.000000   0.000000  
MH_191           45.111549  2.732720   0.000000   0.000000   0.000000  
MH_192           45.111549  3.224671   0.000000   0.000000   0.000000  
MH_193           36.712598  3.484809   0.000000   0.000000   0.000000  
MH_194           48.917323  2.738389   0.000000   0.000000   0.000000  
MH_195           47.375328  13.422363  0.000000   0.000000   0.000000  
MH_196           55.249344  2.984905   0.000000   0.000000   0.000000  
MH_197           48.129921  11.729362  0.000000   0.000000   0.000000  
MH_198           52.263780  3.097811   0.000000   0.000000   0.000000  
MH_199           53.805774  3.927479   0.000000   0.000000   0.000000  
MH_200           53.740157  6.088616   0.000000   0.000000   0.000000  
MH_201           54.232283  4.251783   0.000000   0.000000   0.000000  
MH_202           54.625984  4.245007   0.000000   0.000000   0.000000  
MH_203           46.391076  11.500442  0.000000   0.000000   0.000000  
MH_204           51.837270  6.385123   0.000000   0.000000   0.000000  
MH_205           49.639108  6.247615   0.000000   0.000000   0.000000  
MH_206           44.192913  7.300797   0.000000   0.000000   0.000000  
MH_207           48.589239  4.230044   0.000000   0.000000   0.000000  
MH_208           37.401575  4.446737   0.000000   0.000000   0.000000  
MH_209           35.400262  5.048495   0.000000   0.000000   0.000000  
MH_210           35.236220  6.580984   0.000000   0.000000   0.000000  
MH_211           43.077428  3.712844   0.000000   0.000000   0.000000  
MH_212           44.947507  2.751037   0.000000   0.000000   0.000000  
MH_213           26.509186  10.387520  0.000000   0.000000   0.000000  
MH_214           41.010499  4.536944   0.000000   0.000000   0.000000  
MH_215           42.322835  3.224608   0.000000   0.000000   0.000000  
MH_216           38.188976  4.004589   0.000000   0.000000   0.000000  
MH_217           37.467192  3.794344   0.000000   0.000000   0.000000  
MH_218           22.801837  4.678580   0.000000   0.000000   0.000000  
MH_219           22.408136  5.927534   0.000000   0.000000   0.000000  
MH_220           22.933071  5.446159   0.000000   0.000000   0.000000  
MH_221           23.753281  4.826385   0.000000   0.000000   0.000000  
MH_222           24.606299  5.734155   0.000000   0.000000   0.000000  
MH_223           22.539370  5.796300   0.000000   0.000000   0.000000  
MH_224           44.520997  4.334109   0.000000   0.000000   0.000000  
MH_225           51.049869  7.193741   0.000000   0.000000   0.000000  
MH_226           52.066929  9.376926   0.000000   0.000000   0.000000  
MH_227           52.296588  7.684411   0.000000   0.000000   0.000000  
MH_228           52.690289  6.686306   0.000000   0.000000   0.000000  
MH_229           50.524934  5.676001   0.000000   0.000000   0.000000  
MH_230           44.652231  9.895663   0.000000   0.000000   0.000000  
MH_231           40.649606  11.060946  0.000000   0.000000   0.000000  
MH_232           39.402887  9.044272   0.000000   0.000000   0.000000  
MH_233           48.261155  5.902381   0.000000   0.000000   0.000000  
MH_234           46.817585  8.044682   0.000000   0.000000   0.000000  
MH_235           39.009186  10.884327  0.000000   0.000000   0.000000  
MH_236           37.959318  9.639845   0.000000   0.000000   0.000000  
MH_237           42.290026  5.181394   0.000000   0.000000   0.000000  
MH_238           41.141732  6.004829   0.000000   0.000000   0.000000  
MH_239           33.989501  5.683717   0.000000   0.000000   0.000000  
MH_240           28.871391  14.244835  0.000000   0.000000   0.000000  
MH_241           29.757218  13.680396  0.000000   0.000000   0.000000  
MH_242           30.610236  9.040570   0.000000   0.000000   0.000000  
MH_243           31.660105  6.968092   0.000000   0.000000   0.000000  
MH_244           24.770341  6.543563   0.000000   0.000000   0.000000  
MH_245           17.388451  4.741342   0.000000   0.000000   0.000000  
MH_246           20.636483  4.792569   0.000000   0.000000   0.000000  
MH_247           19.225722  6.173780   0.000000   0.000000   0.000000  
MH_252           40.190289  4.679592   0.000000   0.000000   0.000000  
MH_253           56.430446  4.246274   0.000000   0.000000   0.000000  
MH_254           47.244094  9.333722   0.000000   0.000000   0.000000  
MH_255           47.047244  9.521962   0.000000   0.000000   0.000000  
MH_256           49.081365  10.754317  0.000000   0.000000   0.000000  
MH_257           49.639108  9.816951   0.000000   0.000000   0.000000  
MH_258           43.274278  3.578803   0.000000   0.000000   0.000000  
MH_259           45.997375  10.027813  0.000000   0.000000   0.000000  
MH_260           36.745407  10.027104  0.000000   0.000000   0.000000  
MH_261           37.368766  10.549172  0.000000   0.000000   0.000000  
MH_262           39.468504  7.354200   0.000000   0.000000   0.000000  
MH_263           44.488189  4.961014   0.000000   0.000000   0.000000  
MH_264           32.939633  7.249401   0.000000   0.000000   0.000000  
MH_265           30.774278  8.512625   0.000000   0.000000   0.000000  
MH_266           28.444882  6.825130   0.000000   0.000000   0.000000  
MH_267           26.738845  6.202218   0.000000   0.000000   0.000000  
MH_268           16.797900  5.332113   0.000000   0.000000   0.000000  
MH_269           17.290026  4.839987   0.000000   0.000000   0.000000  
MH_271           15.124672  5.387455   0.000000   0.000000   0.000000  
MH_276           35.203412  3.279307   0.000000   0.000000   0.000000  
MH_277           53.510499  7.169501   0.000000   0.000000   0.000000  
MH_278           48.490814  9.009735   0.000000   0.000000   0.000000  
MH_279           50.524934  5.832949   0.000000   0.000000   0.000000  
MH_280           49.015748  9.020625   0.000000   0.000000   0.000000  
MH_281           50.984252  8.208478   0.000000   0.000000   0.000000  
MH_282           51.377953  8.016693   0.000000   0.000000   0.000000  
MH_283           50.000000  4.190323   0.000000   0.000000   0.000000  
MH_284           48.851706  8.846288   0.000000   0.000000   0.000000  
MH_285           45.767717  8.919825   0.000000   0.000000   0.000000  
MH_286           45.308399  10.620495  0.000000   0.000000   0.000000  
MH_287           50.328084  4.231231   0.000000   0.000000   0.000000  
MH_288           48.982940  5.080060   0.000000   0.000000   0.000000  
MH_289           46.555118  4.942399   0.000000   0.000000   0.000000  
MH_290           47.047244  4.773812   0.000000   0.000000   0.000000  
MH_291           47.506562  4.664001   0.000000   0.000000   0.000000  
MH_292           47.375328  4.907349   0.000000   0.000000   0.000000  
MH_293           47.736220  5.103856   0.000000   0.000000   0.000000  
MH_294           48.031496  4.782084   0.000000   0.000000   0.000000  
MH_295           46.194226  4.995712   0.000000   0.000000   0.000000  
MH_296           46.489501  4.732095   0.000000   0.000000   0.000000  
MH_297           43.011811  7.427573   0.000000   0.000000   0.000000  
MH_298           43.799213  7.048088   0.000000   0.000000   0.000000  
MH_299           43.766404  7.075313   0.000000   0.000000   0.000000  
MH_300           44.422572  6.418836   0.000000   0.000000   0.000000  
MH_301           40.551181  9.137544   0.000000   0.000000   0.000000  
MH_302           44.816273  6.031479   0.000000   0.000000   0.000000  
MH_303           34.481627  5.598032   0.000000   0.000000   0.000000  
MH_304           13.976378  4.884555   0.000000   0.000000   0.000000  
MH_307           14.435696  2.801618   0.000000   0.000000   0.000000  
MH_308           13.615486  3.655632   0.000000   0.000000   0.000000  
MH_309           17.519685  4.878217   0.000000   0.000000   0.000000  
MH_313           44.586614  3.413386   0.000000   0.000000   0.000000  
MH_314           35.498688  3.500908   0.000000   0.000000   0.000000  
MH_315           22.998688  2.006813   0.000000   0.000000   0.000000  
MH_316           19.192913  5.793642   0.000000   0.000000   0.000000  
MH_317           17.782152  4.222111   0.000000   0.000000   0.000000  
MH_318           15.223097  3.786455   0.000000   0.000000   0.000000  
MH_319           17.486877  4.513016   0.000000   0.000000   0.000000  
MH_320           19.881890  4.116321   0.000000   0.000000   0.000000  
MH_321           20.898950  3.098914   0.000000   0.000000   0.000000  
MH_322           16.666667  5.318843   0.000000   0.000000   0.000000  
MH_323           11.154856  6.071678   0.000000   0.000000   0.000000  
MH_325           55.610236  5.062307   0.000000   0.000000   0.000000  
MH_326           53.149606  6.702056   0.000000   0.000000   0.000000  
MH_327           47.867454  5.215825   0.000000   0.000000   0.000000  
MH_328           46.981627  3.063245   0.000000   0.000000   0.000000  
MH_329           48.129921  2.427753   0.000000   0.000000   0.000000  
MH_330           47.867454  2.469418   0.000000   0.000000   0.000000  
MH_331           46.489501  5.943364   0.000000   0.000000   0.000000  
MH_332           46.030184  5.088720   0.000000   0.000000   0.000000  
MH_333           46.062992  4.787434   0.000000   0.000000   0.000000  
MH_334           40.419948  4.489697   0.000000   0.000000   0.000000  
MH_335           38.057743  5.288109   0.000000   0.000000   0.000000  
MH_336           42.191601  7.826240   0.000000   0.000000   0.000000  
MH_337           43.832021  7.825297   0.000000   0.000000   0.000000  
MH_338           12.926509  4.342257   0.000000   0.000000   0.000000  
MH_339           13.320210  5.555688   0.000000   0.000000   0.000000  
MH_340           12.565617  4.721849   0.000000   0.000000   0.000000  
MH_343           42.782152  5.940211   0.000000   0.000000   0.000000  
MH_344           46.916010  6.380186   0.000000   0.000000   0.000000  
MH_345           49.048556  5.885434   0.000000   0.000000   0.000000  
MH_346           47.637795  5.970283   0.000000   0.000000   0.000000  
MH_347           46.883202  5.491817   0.000000   0.000000   0.000000  
MH_348           51.935696  4.579578   0.000000   0.000000   0.000000  
MH_349           53.379265  2.378944   0.000000   0.000000   0.000000  
MH_350           54.396325  1.348460   0.000000   0.000000   0.000000  
MH_351           51.279528  4.103700   0.000000   0.000000   0.000000  
MH_352           50.459318  6.620562   0.000000   0.000000   0.000000  
MH_353           50.000000  7.368839   0.000000   0.000000   0.000000  
MH_354           49.048556  6.733278   0.000000   0.000000   0.000000  
MH_355           49.311024  3.047050   0.000000   0.000000   0.000000  
MH_356           50.426509  2.885114   0.000000   0.000000   0.000000  
MH_357           48.195538  5.782878   0.000000   0.000000   0.000000  
MH_358           50.984252  2.378858   0.000000   0.000000   0.000000  
MH_359           51.541995  3.617536   0.000000   0.000000   0.000000  
MH_360           49.967192  2.728025   0.000000   0.000000   0.000000  
MH_362           8.530184   5.413184   0.000000   0.000000   0.000000  
MH_363           12.237533  4.943652   0.000000   0.000000   0.000000  
MH_364           12.139108  3.930659   0.000000   0.000000   0.000000  
MH_365           12.467192  4.387767   0.000000   304.878049 0.000000  
MH_366           11.843832  3.593812   0.000000   0.000000   0.000000  
MH_367           11.200000  2.837579   0.000000   0.000000   0.000000  
MH_368           11.024000  2.925542   0.000000   0.000000   0.000000  
MH_369           11.548556  2.883580   0.000000   0.000000   0.000000  
MH_372           8.759843   5.193361   0.000000   0.000000   0.000000  
MH_373           8.661417   5.302359   0.000000   0.000000   0.000000  

[OUTFALLS]
;;Name           Elevation  Type       Stage Data       Gated    Route To        
;;-------------- ---------- ---------- ---------------- -------- ----------------
OUT_374          10.564304  FREE                        NO                       

[STORAGE]
;;Name           Elev.    MaxDepth   InitDepth  Shape      Curve Name/Params            N/A      Fevap    Psi      Ksat     IMD     
;;-------------- -------- ---------- ----------- ---------- ---------------------------- -------- --------          -------- --------
; New Wet Well
WW-1             4.000000 20.700000  11.000000  TABULAR    WW1                          0.000000 0.000000

[CONDUITS]
;;Name           From Node        To Node          Length     Roughness  InOffset   OutOffset  InitFlow   MaxFlow   
;;-------------- ---------------- ---------------- ---------- ---------- ---------- ---------- ---------- ----------
1                MH_000           MH_008           51.662365  0.013000   0.000000   0.000000   0.000000   0.000000  
10               MH_012           MH_011           6.082763   0.013000   0.000000   0.000000   0.000000   0.000000  
100              MH_100           MH_102           91.443972  0.013000   0.000000   0.000000   0.000000   0.000000  
101              MH_101           MH_108           92.048900  0.013000   0.000000   0.000000   0.000000   0.000000  
102              MH_101           MH_103           1.414214   0.013000   0.623360   0.000000   0.000000   0.000000  
103              MH_102           MH_101           4.000000   0.013000   0.000000   0.065617   0.000000   0.000000  
105              MH_104           MH_106           4.472136   0.013000   0.426509   0.000000   0.000000   0.000000  
106              MH_104           MH_000           46.572524  0.013000   0.000000   0.000000   0.000000   0.000000  
107              MH_105           MH_108           8.544004   0.013000   0.000000   2.132546   0.000000   0.000000  
110              MH_108           MH_104           6.082763   0.013000   0.000000   0.000000   0.000000   0.000000  
111              MH_109           MH_126           118.456743 0.013000   0.000000   0.688977   0.000000   0.000000  
112              MH_110           MH_158           57.567352  0.013000   0.000000   0.000000   0.000000   0.000000  
113              MH_111           MH_110           31.780497  0.013000   0.000000   0.000000   0.000000   0.000000  
121              MH_119           MH_164           41.436699  0.013000   0.000000   0.032808   0.000000   0.000000  
123              MH_121           MH_126           21.931712  0.013000   0.000000   0.065617   0.000000   0.000000  
124              MH_122           MH_121           3.162278   0.013000   0.000000   0.000000   0.000000   0.000000  
126              MH_124           MH_126           11.180340  0.013000   0.000000   0.032809   0.000000   0.000000  
128              MH_126           MH_012           21.377558  0.013000   0.000000   0.000000   0.000000   0.000000  
13               MH_013           MH_014           49.000000  0.013000   0.000000   0.032809   0.000000   0.000000  
133              MH_131           MH_124           112.017856 0.013000   0.000000   0.000000   0.000000   0.000000  
134              MH_132           MH_167           64.845971  0.013000   0.000000   0.131234   0.000000   0.000000  
135              MH_133           MH_131           140.014285 0.013000   0.000000   0.000000   0.000000   0.000000  
136              MH_134           MH_132           72.801099  0.013000   0.000000   0.000000   0.000000   0.000000  
137              MH_135           MH_169           84.053554  0.013000   0.000000   0.065617   0.000000   0.000000  
138              MH_136           MH_139           22.472205  0.013000   0.000000   0.098425   0.000000   0.000000  
139              MH_137           MH_136           58.420887  0.013000   0.000000   0.065617   0.000000   0.000000  
14               MH_014           MH_015           24.515301  0.013000   0.000000   0.131234   0.000000   0.000000  
140              MH_138           MH_100           106.976633 0.013000   0.000000   0.393701   0.000000   0.000000  
141              MH_139           MH_097           67.067131  0.013000   0.000000   0.032809   0.000000   0.000000  
142              MH_140           MH_147           7.000000   0.013000   0.000000   0.131234   0.000000   0.000000  
143              MH_141           MH_140           16.278821  0.013000   0.000000   0.000000   0.000000   0.000000  
144              MH_142           MH_141           6.082763   0.013000   0.000000   0.131233   0.000000   0.000000  
145              MH_143           MH_142           4.123106   0.013000   0.000000   0.032809   0.000000   0.000000  
146              MH_144           MH_143           5.099020   0.013000   0.000000   0.098425   0.000000   0.000000  
147              MH_145           MH_144           6.082763   0.013000   0.000000   0.000000   0.000000   0.000000  
148              MH_146           MH_145           4.472136   0.013000   0.000000   0.032808   0.000000   0.000000  
149              MH_147           MH_148           32.388269  0.013000   0.000000   0.032808   0.000000   0.000000  
15               MH_015           MH_016           101.636608 0.013000   0.000000   0.000000   0.000000   0.000000  
150              MH_148           MH_149           59.228372  0.013000   0.000000   0.000000   0.000000   0.000000  