[TITLE]
;;Project Title/Notes

[OPTIONS]
;;Option             Value
FLOW_UNITS           CMS
INFILTRATION         HORTON
FLOW_ROUTING         DYNWAVE
LINK_OFFSETS         DEPTH
MIN_SLOPE            0
ALLOW_PONDING        YES
SKIP_STEADY_STATE    NO

START_DATE           12/19/2018
START_TIME           00:00:00
REPORT_START_DATE    12/19/2018
REPORT_START_TIME    00:00:00
END_DATE             12/19/2018
END_TIME             12:00:00
SWEEP_START          01/01
SWEEP_END            12/31
DRY_DAYS             0
REPORT_STEP          00:15:00
WET_STEP             00:05:00
DRY_STEP             01:00:00
ROUTING_STEP         0:00:30 

INERTIAL_DAMPING     PARTIAL
NORMAL_FLOW_LIMITED  BOTH
FORCE_MAIN_EQUATION  H-W
VARIABLE_STEP        0.75
LENGTHENING_STEP     5
MIN_SURFAREA         1.14
MAX_TRIALS           8
HEAD_TOLERANCE       0.0015
SYS_FLOW_TOL         5
LAT_FLOW_TOL         5
MINIMUM_STEP         0
THREADS              1

[EVAPORATION]
;;Data Source    Parameters
;;-------------- ----------------
CONSTANT         0.0
DRY_ONLY         NO

[RAINGAGES]
;;Name           Format    Interval SCF      Source    
;;-------------- --------- ------ ------ ----------
1201             INTENSITY 1:00     1.0      TIMESERIES MyStorm         

[SUBCATCHMENTS]
;;Name           Rain Gage        Outlet           Area     %Imperv  Width    %Slope   CurbLen  SnowPack        
;;-------------- ---------------- ---------------- -------- -------- -------- -------- -------- ----------------
; Name Raingage Outlet Area %Imperv Width Slope Clength
Z12_H_929        1201             14H13            0.909106 78.594580 562.034332 1.550000 0.000000                 
Z12_H_930        1201             14H230           2.052098 24.288202 819.664230 1.840000 0.000000                 
Z12_H_931        1201             14H12            1.210286 24.474835 507.476498 1.640000 0.000000                 
Z12_H_932        1201             14H11            3.919019 24.692374 976.348736 1.477000 0.000000                 
Z12_H_933        1201             14H217           1.269989 40.033681 610.440807 1.288000 0.000000                 
Z12_H_934        1201             14H97            2.232780 39.592646 671.508509 1.660000 0.000000                 
Z12_H_935        1201             14H236           1.165796 42.188915 515.283722 1.798000 0.000000                 
Z12_H_936        1201             14H219           1.194256 44.287984 502.281061 1.098000 0.000000                 
Z12_H_937        1201             13H191           1.704600 45.331053 666.529428 3.065000 0.000000                 
Z12_H_938        1201             13H211           3.514573 35.664033 1108.597710 4.138000 0.000000                 
Z12_H_939        1201             13H213           3.009597 35.318093 806.486756 5.389000 0.000000                 
Z12_H_940        1201             13H190           2.465076 44.921518 591.412569 4.616000 0.000000                 
Z12_H_941        1201             13H194           1.342797 32.339216 519.900575 6.446000 0.000000                 
Z12_H_942        1201             13H188           2.825362 33.446272 767.864021 4.508000 0.000000                 
Z12_H_943        1201             13H186           1.384955 38.971473 576.228395 4.751000 0.000000                 
Z12_H_944        1201             13H127           2.797887 33.439347 702.477366 2.919000 0.000000                 
Z12_H_945        1201             13H201           1.019946 36.988422 524.800865 6.467000 0.000000                 
Z12_H_946        1201             13H202           2.989230 24.968332 703.649620 8.078000 0.000000                 
Z12_H_947        1201             13H206           1.020098 39.914633 446.841458 5.637000 0.000000                 
Z12_H_948        1201             13H185           5.654308 32.938760 969.090686 7.570000 0.000000                 
Z12_H_949        1201             13H68            1.692737 32.156669 542.988112 3.791000 0.000000                 
Z12_H_950        1201             13H208           1.923402 28.943479 578.375814 8.268000 0.000000                 
Z12_H_951        1201             13H186           1.426344 43.204382 512.310424 6.196000 0.000000                 
Z12_H_952        1201             13H205           2.618718 32.454368 624.166865 5.494000 0.000000                 
Z12_H_953        1201             13H53            0.566640 64.025433 458.742689 4.493000 0.000000                 
Z12_H_954        1201             14H219           1.061841 35.192184 541.624981 1.430000 0.000000                 
Z12_H_955        1201             14H219           0.849568 51.257274 530.822474 1.551000 0.000000                 
Z12_H_956        1201             14H221           1.739985 47.209214 874.464993 1.775000 0.000000                 
Z12_H_957        1201             13H185           2.500822 36.628889 586.869812 5.071000 0.000000                 
Z12_H_958        1201             13H129           1.344177 39.122736 525.510826 1.793000 0.000000                 
Z12_H_959        1201             13H129           3.814209 35.367619 1266.648409 3.434000 0.000000                 
Z12_H_960        1201             13H129           3.473951 37.974440 1344.129514 3.552000 0.000000                 

[SUBAREAS]
;;Subcatchment   N-Imperv   N-Perv     S-Imperv   S-Perv     PctZero    RouteTo    PctRouted 
;;-------------- ---------- ---------- ---------- ---------- ---------- ---------- ----------
Z12_H_929        0.000000   0.000000   0.000000   0.000000   100.000000 OUTLET    
Z12_H_930        0.000000   0.000000   0.000000   0.000000   100.000000 OUTLET    
Z12_H_931        0.000000   0.000000   0.000000   0.000000   100.000000 OUTLET    
Z12_H_932        0.000000   0.000000   0.000000   0.000000   100.000000 OUTLET    
Z12_H_933        0.000000   0.000000   0.000000   0.000000   100.000000 OUTLET    
Z12_H_934        0.000000   0.000000   0.000000   0.000000   100.000000 OUTLET    
Z12_H_935        0.000000   0.000000   0.000000   0.000000   100.000000 OUTLET    
Z12_H_936        0.000000   0.000000   0.000000   0.000000   100.000000 OUTLET    
Z12_H_937        0.000000   0.000000   0.000000   0.000000   100.000000 OUTLET    
Z12_H_938        0.000000   0.000000   0.000000   0.000000   100.000000 OUTLET    
Z12_H_939        0.000000   0.000000   0.000000   0.000000   100.000000 OUTLET    
Z12_H_940        0.000000   0.000000   0.000000   0.000000   100.000000 OUTLET    
Z12_H_941        0.000000   0.000000   0.000000   0.000000   100.000000 OUTLET    
Z12_H_942        0.000000   0.000000   0.000000   0.000000   100.000000 OUTLET    
Z12_H_943        0.000000   0.000000   0.000000   0.000000   100.000000 OUTLET    
Z12_H_944        0.000000   0.000000   0.000000   0.000000   100.000000 OUTLET    
Z12_H_945        0.000000   0.000000   0.000000   0.000000   100.000000 OUTLET    
Z12_H_946        0.000000   0.000000   0.000000   0.000000   100.000000 OUTLET    
Z12_H_947        0.000000   0.000000   0.000000   0.000000   100.000000 OUTLET    
Z12_H_948        0.000000   0.000000   0.000000   0.000000   100.000000 OUTLET    
Z12_H_949        0.000000   0.000000   0.000000   0.000000   100.000000 OUTLET    
Z12_H_950        0.000000   0.000000   0.000000   0.000000   100.000000 OUTLET    
Z12_H_951        0.000000   0.000000   0.000000   0.000000   100.000000 OUTLET    
Z12_H_952        0.000000   0.000000   0.000000   0.000000   100.000000 OUTLET    
Z12_H_953        0.000000   0.000000   0.000000   0.000000   100.000000 OUTLET    
Z12_H_954        0.000000   0.000000   0.000000   0.000000   100.000000 OUTLET    
Z12_H_955        0.000000   0.000000   0.000000   0.000000   100.000000 OUTLET    
Z12_H_956        0.000000   0.000000   0.000000   0.000000   100.000000 OUTLET    
Z12_H_957        0.000000   0.000000   0.000000   0.000000   100.000000 OUTLET    
Z12_H_958        0.000000   0.000000   0.000000   0.000000   100.000000 OUTLET    
Z12_H_959        0.000000   0.000000   0.000000   0.000000   100.000000 OUTLET    
Z12_H_960        0.000000   0.000000   0.000000   0.000000   100.000000 OUTLET    

[INFILTRATION]
;;Subcatchment   MaxRate    MinRate    Decay      DryTime    MaxInfil  
;;-------------- ---------- ---------- ---------- ---------- ----------
Z12_H_929        50.800001  1.778000   1.000000   8.000000   101498.401908
Z12_H_930        50.800001  1.778000   1.000000   8.000000   101498.401908
Z12_H_931        50.800001  1.778000   1.000000   8.000000   101498.401908
Z12_H_932        50.800001  1.778000   1.000000   8.000000   101498.401908
Z12_H_933        50.800001  1.778000   1.000000   8.000000   101498.401908
Z12_H_934        50.800001  1.778000   1.000000   8.000000   101498.401908
Z12_H_935        50.800001  1.778000   1.000000   8.000000   101498.401908
Z12_H_936        50.800001  1.778000   1.000000   8.000000   101498.401908
Z12_H_937        50.800001  1.778000   1.000000   8.000000   101498.401908
Z12_H_938        65.917299  2.987384   1.000000   8.000000   101498.401908
Z12_H_939        74.665407  3.687232   1.000000   8.000000   101498.401908
Z12_H_940        59.312566  2.459005   1.000000   8.000000   101498.401908
Z12_H_941        58.050060  2.358005   1.000000   8.000000   101498.401908
Z12_H_942        72.041610  3.477329   1.000000   8.000000   101498.401908
Z12_H_943        76.200001  3.810000   1.000000   8.000000   101498.401908
Z12_H_944        76.200001  3.810000   1.000000   8.000000   101498.401908
Z12_H_945        76.200001  3.810000   1.000000   8.000000   101498.401908
Z12_H_946        76.200001  3.810000   1.000000   8.000000   101498.401908
Z12_H_947        76.200001  3.810000   1.000000   8.000000   101498.401908
Z12_H_948        76.200001  3.810000   1.000000   8.000000   101498.401908
Z12_H_949        76.200001  3.810000   1.000000   8.000000   101498.401908
Z12_H_950        76.200001  3.810000   1.000000   8.000000   101498.401908
Z12_H_951        76.200001  3.810000   1.000000   8.000000   101498.401908
Z12_H_952        73.364652  3.583172   1.000000   8.000000   101498.401908
Z12_H_953        50.800001  1.778000   1.000000   8.000000   101498.401908
Z12_H_954        50.800001  1.778000   1.000000   8.000000   101498.401908
Z12_H_955        50.800001  1.778000   1.000000   8.000000   101498.401908
Z12_H_956        50.800001  1.778000   1.000000   8.000000   101498.401908
Z12_H_957        76.200001  3.810000   1.000000   8.000000   101498.401908
Z12_H_958        50.800001  1.778000   1.000000   8.000000   101498.401908
Z12_H_959        69.642219  3.285377   1.000000   8.000000   101498.401908
Z12_H_960        69.188017  3.249041   1.000000   8.000000   101498.401908

[JUNCTIONS]
;;Name           Elevation  MaxDepth   InitDepth  SurDepth   Aponded   
;;-------------- ---------- ---------- ---------- ---------- ----------
; Name Elev ( Ymax Y0 Ysur Apond )
13H127           29.135832  1.558168   0.000000   999.000000 28061.481290
13H53            17.016984  0.630599   0.000000   999.000000 5671.752230
14H96            12.207240  2.840263   0.000000   999.000000 0.000000  
14H97            13.289280  1.975719   0.000000   999.000000 22459.413196
13H68            29.809440  1.406287   0.000000   999.000000 17019.905178
13H69            27.432000  1.494210   0.000000   999.000000 0.000000  
14H227           7.748016   1.233322   0.000000   999.000000 0.000000  
14H228           7.833360   1.435337   0.000000   999.000000 0.000000  
14H229           8.107680   1.065703   0.000000   999.000000 0.000000  
14H230           8.138160   1.032522   0.000000   999.000000 20622.231816
14H233           11.295888  1.656052   0.000000   999.000000 0.000000  
13H191           13.776960  2.196380   0.000000   999.000000 17129.077290
13H192           14.566392  2.359612   0.000000   999.000000 0.000000  
13H194           20.958048  1.293735   0.000000   999.000000 13559.246517
13H196           27.535632  1.887620   0.000000   999.000000 0.000000  
13H200           31.498032  0.975757   0.000000   999.000000 0.000000  
13H201           32.052768  0.513985   0.000000   999.000000 10226.340226
13H202           35.667696  0.884317   0.000000   999.000000 29956.709072
13H205           25.054560  2.171240   0.000000   999.000000 26424.050155
13H206           25.847040  1.800306   0.000000   999.000000 10235.635643
13H208           35.600640  1.623363   0.000000   999.000000 19303.006150
14H234           14.660880  1.800498   0.000000   999.000000 0.000000  
14H236           16.093440  1.505834   0.000000   999.000000 11684.930480
13H210           15.374112  1.045482   0.000000   999.000000 0.000000  
13H211           16.916400  1.107140   0.000000   999.000000 35356.715251
13H212           18.470880  1.790469   0.000000   999.000000 0.000000  
13H213           20.604480  0.798451   0.000000   999.000000 30202.894437
13H219           11.308385  2.073994   0.000000   999.000000 0.000000  
14H9             10.128504  2.142433   0.000000   999.000000 0.000000  
14H10            8.287512   2.542419   0.000000   999.000000 0.000000  
14H11            6.918960   2.344933   0.000000   999.000000 39372.468053
14H12            6.004560   2.790344   0.000000   999.000000 12154.090072
14H13            5.571744   2.895649   0.000000   999.000000 9109.182287
14H14            4.175760   3.815889   0.000000   999.000000 0.000000  
14H15            3.374136   2.671060   0.000000   999.000000 0.000000  
13H185           32.461200  1.960778   0.000000   999.000000 81827.006588
13H186           23.378160  1.837479   0.000000   999.000000 28186.890802
13H188           23.256240  1.443760   0.000000   999.000000 28467.928697
13H189           30.245304  1.676188   0.000000   999.000000 0.000000  
14H221           5.571744   2.875382   0.000000   999.000000 17521.584082
14H217           11.262360  1.647304   0.000000   999.000000 12762.608042
14H218           11.887200  2.018315   0.000000   999.000000 0.000000  
13H190           14.749272  2.955310   0.000000   999.000000 24784.297341
14H219           10.646664  1.938988   0.000000   999.000000 31257.374243
13H129           12.862560  2.423776   0.000000   999.000000 86776.431617

[OUTFALLS]
;;Name           Elevation  Type       Stage Data       Gated    Route To        
;;-------------- ---------- ---------- ---------------- -------- ----------------
; Name InvertEl FREE FlapGate
; Name InvertEl NORMAL FlapGate
; Name InvertEl FIXED FixedStage FlapGate
; Name InvertEl TIDAL TideTable FlapGate
; Name InvertEl TIMESERIES StageSeries FlapGate
14H16            2.560320   FREE                        NO                       

[CONDUITS]
;;Name           From Node        To Node          Length     Roughness  InOffset   OutOffset  InitFlow   MaxFlow   
;;-------------- ---------------- ---------------- ---------- ---------- ---------- ---------- ---------- ----------
; Name Node1 Node2 Length Nvalue Zup Zdown InitFlow
13H53.1          13H53            13H190           8.349513   0.012000   0.000000   0.000000   0.000000   0         
13H205.1         13H205           13H188           85.368470  0.012000   0.000000   0.000000   0.000000   0         
14H12.1          14H12            14H13            162.901374 0.012000   0.000000   0.000000   0.000000   0         
14H230.1         14H230           14H229           7.601175   0.012000   0.000000   0.000000   0.000000   0         
14H229.1         14H229           14H228           70.361417  0.012000   0.000000   0.000000   0.000000   0         
14H228.1         14H228           14H227           6.826465   0.012000   0.000000   0.000000   0.000000   0         
14H13.1          14H13            14H14            69.103270  0.012000   0.000000   0.000000   0.000000   0         
13H192.1         13H192           13H191           96.164821  0.012000   0.000000   0.000000   0.000000   0         
13H194.1         13H194           13H53            95.546389  0.012000   0.000000   0.000000   0.000000   0         
13H69.1          13H69            13H206           35.718226  0.012000   0.000000   0.121920   0.000000   0         
14H227.1         14H227           14H221           78.905891  0.012000   0.000000   0.000000   0.000000   0         
14H221.1         14H221           14H13            1.939742   0.012000   0.000000   0.000000   0.000000   0         
13H188.1         13H188           13H190           287.575265 0.012000   0.000000   0.000000   0.000000   0         
14H236.1         14H236           14H234           99.502459  0.012000   0.000000   0.000000   0.000000   0         
13H196.1         13H196           13H186           118.129217 0.012000   0.000000   0.000000   0.000000   0         
13H213.1         13H213           13H212           97.599322  0.012000   0.000000   0.000000   0.000000   0         
14H96.1          14H96            14H218           78.387774  0.012000   0.000000   0.000000   0.000000   0         
14H11.1          14H11            14H12            103.254547 0.012000   0.000000   0.000000   0.000000   0         
13H186.1         13H186           13H188           37.421643  0.012000   0.000000   0.000000   0.000000   0         
13H208.1         13H208           13H68            90.226571  0.012000   0.000000   0.000000   0.000000   0         
14H233.1         14H233           14H217           13.031205  0.012000   0.000000   0.000000   0.000000   0         
14H9.1           14H9             14H10            127.572523 0.012000   0.000000   0.000000   0.000000   0         
14H217.1         14H217           14H9             17.958032  0.012000   0.000000   0.000000   0.000000   0         
13H127.1         13H127           13H196           28.433885  0.012000   0.000000   0.000000   0.000000   0         
14H218.1         14H218           14H233           62.934169  0.012000   0.000000   0.000000   0.000000   0         
13H202.1         13H202           13H201           67.975894  0.012000   0.000000   0.000000   0.000000   0         
14H219.1         14H219           14H9             45.885779  0.012000   0.000000   0.000000   0.000000   0         
13H185.1         13H185           13H189           38.211909  0.012000   0.000000   0.000000   0.000000   0         
13H189.1         13H189           13H68            13.311729  0.012000   0.000000   0.000000   0.000000   0         
13H68.1          13H68            13H206           91.009452  0.012000   0.000000   0.000000   0.000000   0         
13H201.1         13H201           13H200           11.265566  0.012000   0.000000   0.000000   0.000000   0         
13H200.1         13H200           13H127           20.235268  0.012000   0.000000   0.000000   0.000000   0         
14H97.1          14H97            14H96            18.268464  0.012000   0.000000   0.000000   0.000000   0         
14H15.1          14H15            14H16            155.992472 0.012000   0.000000   0.000000   0.000000   0         
13H191.1         13H191           13H219           157.288129 0.012000   0.000000   0.000000   0.000000   0         
14H14.1          14H14            14H15            153.945031 0.012000   0.000000   0.000000   0.000000   0         
14H10.1          14H10            14H11            124.848435 0.012000   0.000000   0.000000   0.000000   0         
13H190.1         13H190           13H192           22.429542  0.012000   0.000000   0.000000   0.000000   0         
14H234.1         14H234           14H97            101.133732 0.012000   0.000000   0.000000   0.000000   0         
13H211.1         13H211           13H210           95.334705  0.012000   0.015240   0.000000   0.000000   0         
13H210.1         13H210           13H191           63.707447  0.012000   0.000000   0.000000   0.000000   0         
13H129.1         13H129           13H219           55.161106  0.012000   0.000000   0.487375   0.000000   0         
13H212.1         13H212           13H211           97.153773  0.012000   0.000000   0.000000   0.000000   0         
13H219.1         13H219           14H219           42.171990  0.012000   0.000000   0.000000   0.000000   0         
13H206.2         13H206           13H205           11.644758  0.012000   0.121920   0.000000   0.000000   0         

[XSECTIONS]
;;Link           Shape        Geom1            Geom2      Geom3      Geom4      Barrels    Culvert   
;;-------------- ------------ ---------------- ---------- ---------- ---------- ---------- ----------
13H53.1          CIRCULAR     0.304800         0.000000   0.000000   0.000000   1                    
13H205.1         CIRCULAR     0.609600         0.000000   0.000000   0.000000   1                    
14H12.1          CIRCULAR     1.219200         0.000000   0.000000   0.000000   1                    
14H230.1         CIRCULAR     0.304800         0.000000   0.000000   0.000000   1                    
14H229.1         CIRCULAR     0.304800         0.000000   0.000000   0.000000   1                    
14H228.1         CIRCULAR     0.152400         0.000000   0.000000   0.000000   1                    
14H13.1          CIRCULAR     1.219200         0.000000   0.000000   0.000000   1                    
13H192.1         CIRCULAR     0.533400         0.000000   0.000000   0.000000   1                    
13H194.1         CIRCULAR     0.304800         0.000000   0.000000   0.000000   1                    
13H69.1          CIRCULAR     0.254000         0.000000   0.000000   0.000000   1                    
14H227.1         CIRCULAR     0.152400         0.000000   0.000000   0.000000   1                    
14H221.1         CIRCULAR     0.152400         0.000000   0.000000   0.000000   1                    
13H188.1         RECT_CLOSED  0.838200         0.914400   0.000000   0.000000   1                    
14H236.1         CIRCULAR     0.304800         0.000000   0.000000   0.000000   1                    
13H196.1         CIRCULAR     0.457200         0.000000   0.000000   0.000000   1                    
13H213.1         CIRCULAR     0.457200         0.000000   0.000000   0.000000   1                    
14H96.1          CIRCULAR     0.457200         0.000000   0.000000   0.000000   1                    
14H11.1          CIRCULAR     1.066800         0.000000   0.000000   0.000000   1                    
13H186.1         CIRCULAR     0.457200         0.000000   0.000000   0.000000   1                    
13H208.1         CIRCULAR     0.254000         0.000000   0.000000   0.000000   1                    
14H233.1         CIRCULAR     0.457200         0.000000   0.000000   0.000000   1                    
14H9.1           CIRCULAR     1.066800         0.000000   0.000000   0.000000   1                    
14H217.1         CIRCULAR     0.609600         0.000000   0.000000   0.000000   1                    
13H127.1         CIRCULAR     0.381000         0.000000   0.000000   0.000000   1                    
14H218.1         CIRCULAR     0.457200         0.000000   0.000000   0.000000   1                    
13H202.1         CIRCULAR     0.304800         0.000000   0.000000   0.000000   1                    
14H219.1         CIRCULAR     1.066800         0.000000   0.000000   0.000000   1                    
13H185.1         CIRCULAR     0.381000         0.000000   0.000000   0.000000   1                    
13H189.1         CIRCULAR     0.381000         0.000000   0.000000   0.000000   1                    
13H68.1          CIRCULAR     0.609600         0.000000   0.000000   0.000000   1                    
13H201.1         CIRCULAR     0.304800         0.000000   0.000000   0.000000   1                    
13H200.1         CIRCULAR     0.304800         0.000000   0.000000   0.000000   1                    
14H97.1          CIRCULAR     0.457200         0.000000   0.000000   0.000000   1                    
14H15.1          CIRCULAR     1.219200         0.000000   0.000000   0.000000   1                    
13H191.1         CIRCULAR     0.914400         0.000000   0.000000   0.000000   1                    
14H14.1          CIRCULAR     1.219200         0.000000   0.000000   0.000000   1                    
14H10.1          CIRCULAR     1.066800         0.000000   0.000000   0.000000   1                    
13H190.1         CIRCULAR     0.533400         0.000000   0.000000   0.000000   1                    
14H234.1         CIRCULAR     0.304800         0.000000   0.000000   0.000000   1                    
13H211.1         CIRCULAR     0.533400         0.000000   0.000000   0.000000   1                    
13H210.1         CIRCULAR     0.533400         0.000000   0.000000   0.000000   1                    
13H129.1         CIRCULAR     0.457200         0.000000   0.000000   0.000000   1                    
13H212.1         CIRCULAR     0.457200         0.000000   0.000000   0.000000   1                    
13H219.1         CIRCULAR     0.914400         0.000000   0.000000   0.000000   1                    
13H206.2         CIRCULAR     0.609600         0.000000   0.000000   0.000000   1                    

[LOSSES]
;;Link           Kentry     Kexit      Kavg       Flap Gate  Seepage   
;;-------------- ---------- ---------- ---------- ---------- ----------
13H53.1          1.000000   1.000000   0.000000   NO         0         
13H205.1         1.000000   1.000000   0.000000   NO         0         
14H12.1          1.000000   1.000000   0.000000   NO         0         
14H230.1         1.000000   1.000000   0.000000   NO         0         
14H229.1         1.000000   1.000000   0.000000   NO         0         
14H228.1         1.000000   1.000000   0.000000   NO         0         
14H13.1          1.000000   1.000000   0.000000   NO         0         
13H192.1         1.000000   1.000000   0.000000   NO         0         
13H194.1         1.000000   1.000000   0.000000   NO         0         
13H69.1          1.000000   1.000000   0.000000   NO         0         
14H227.1         1.000000   1.000000   0.000000   NO         0         
14H221.1         1.000000   1.000000   0.000000   NO         0         
13H188.1         1.000000   1.000000   0.000000   NO         0         
14H236.1         1.000000   1.000000   0.000000   NO         0         
13H196.1         1.000000   1.000000   0.000000   NO         0         
13H213.1         1.000000   1.000000   0.000000   NO         0         
14H96.1          1.000000   1.000000   0.000000   NO         0         
14H11.1          1.000000   1.000000   0.000000   NO         0         
13H186.1         1.000000   1.000000   0.000000   NO         0         
13H208.1         1.000000   1.000000   0.000000   NO         0         
14H233.1         1.000000   1.000000   0.000000   NO         0         
14H9.1           1.000000   1.000000   0.000000   NO         0         
14H217.1         1.000000   1.000000   0.000000   NO         0         
13H127.1         1.000000   1.000000   0.000000   NO         0         
14H218.1         1.000000   1.000000   0.000000   NO         0         
13H202.1         1.000000   1.000000   0.000000   NO         0         
14H219.1         1.000000   1.000000   0.000000   NO         0         
13H185.1         1.000000   1.000000   0.000000   NO         0         
13H189.1         1.000000   1.000000   0.000000   NO         0         
13H68.1          1.000000   1.000000   0.000000   NO         0         
13H201.1         1.000000   1.000000   0.000000   NO         0         
13H200.1         1.000000   1.000000   0.000000   NO         0         
14H97.1          1.000000   1.000000   0.000000   NO         0         
14H15.1          1.000000   0.015000   0.000000   NO         0         
13H191.1         1.000000   1.000000   0.000000   NO         0         
14H14.1          1.000000   1.000000   0.000000   NO         0         
14H10.1          1.000000   1.000000   0.000000   NO         0         
13H190.1         1.000000   1.000000   0.000000   NO         0         
14H234.1         1.000000   1.000000   0.000000   NO         0         
13H211.1         1.000000   1.000000   0.000000   NO         0         
13H210.1         1.000000   1.000000   0.000000   NO         0         
13H129.1         1.000000   1.000000   0.000000   NO         0         
13H212.1         1.000000   1.000000   0.000000   NO         0         
13H219.1         1.000000   1.000000   0.000000   NO         0         
13H206.2         1.000000   1.000000   0.000000   NO         0         

[TIMESERIES]
;;Name           Date       Time       Value     
;;-------------- ---------- ---------- ----------
MyStorm                     0          0         
MyStorm                     1          2         
MyStorm                     2          4         
MyStorm                     3          8         
MyStorm                     4          4         
MyStorm                     5          4         
MyStorm                     6          2         
MyStorm                     7          2         
MyStorm                     8          0         

[REPORT]
;;Reporting Options
INPUT      NO
CONTROLS   NO
SUBCATCHMENTS ALL
NODES ALL
LINKS ALL

[TAGS]

[MAP]
DIMENSIONS 1849500.730 641758.808 1850490.065 643482.851
Units      None

[COORDINATES]
;;Node           X-Coord            Y-Coord           
;;-------------- ------------------ ------------------
13H127           1849905.766        643163.195        
13H53            1849994.768        642704.471        
14H96            1849976.022        642498.730        
14H97            1849982.003        642515.992        
13H68            1850115.793        643086.327        
13H69            1850040.740        643059.488        
14H227           1849793.818        642162.022        
14H228           1849797.469        642167.790        
14H229           1849737.946        642205.310        
14H230           1849731.469        642209.289        
14H233           1849834.760        642501.907        
13H191           1849928.740        642612.249        
13H192           1849972.944        642693.753        