[TITLE]
Scenario Run :  BASE

[OPTIONS]
;Option and Files Scenario Set: BASE, Base Simulation Options
FLOW_UNITS	CFS
INFILTRATION	GREEN_AMPT
FLOW_ROUTING	DYNWAVE
ALLOW_PONDING	NO
DRY_DAYS	5.000000
SKIP_STEADY_STATE 	NO
IGNORE_RAINFALL	NO
IGNORE_SNOWMELT	NO
IGNORE_GROUNDWATER	NO
IGNORE_QUALITY	NO
FORCE_MAIN_EQUATION	H-W
LINK_OFFSETS	DEPTH
MIN_SLOPE	0.000000
START_DATE	02/11/2004
START_TIME	00:00:00
END_DATE	02/13/2004
END_TIME	00:00:00
REPORT_START_DATE	02/11/2004
REPORT_START_TIME	00:00:00
SWEEP_START	01/01
SWEEP_END	12/31
WET_STEP	0:00:30
DRY_STEP	24:00:00
ROUTING_STEP	30
REPORT_STEP	0:00:30
INERTIAL_DAMPING	PARTIAL
VARIABLE_STEP	0.750000
MINIMUM_STEP	0.5
LENGTHENING_STEP	1
MIN_SURFAREA	0.000000
NORMAL_FLOW_LIMITED	SLOPE

[FILES]

[RAINGAGES]
BVILLE 14 100YRGAGE	CUMULATIVE	0.100000	1.000000	TIMESERIES	BVILLE 14 100YR		

[HYDROGRAPHS]

[EVAPORATION]
MONTHLY	0.000000	0.000000	0.000000	0.000000	0.000000	0.000000	0.000000	0.000000	0.000000	0.000000	0.000000	0.000000
DRY_ONLY	NO

[TEMPERATURE]

[ADJUSTMENTS]

[SUBCATCHMENTS]
11531#1	BVILLE 14 100YRGAGE	11531	0.368000	57.100000	0.008574	5.670464	0.000000
11534#1	BVILLE 14 100YRGAGE	11534	8.025000	23.600000	0.011731	20.767320	0.000000
12482#1	BVILLE 14 100YRGAGE	12482	1.955000	39.100000	0.010489	9.614008	0.000000
12556#1	BVILLE 14 100YRGAGE	12556	72.622000	8.000000	0.062672	16.394752	0.000000
12559#1	BVILLE 14 100YRGAGE	12559	22.552000	6.900000	0.044535	15.622640	0.000000
12560#1	BVILLE 14 100YRGAGE	12560	20.385000	8.500000	0.042424	13.323688	0.000000
12562#1	BVILLE 14 100YRGAGE	12562	0.461000	7.900000	0.008740	9.143328	0.000000
13149#1	BVILLE 14 100YRGAGE	13149	18.990000	18.400000	0.026836	14.441184	0.000000
13457#1	BVILLE 14 100YRGAGE	13457	7.006000	37.000000	0.021053	6.788944	0.000000
13698#1	BVILLE 14 100YRGAGE	13698	9.328000	14.700000	0.021442	15.226744	0.000000
15512#1	BVILLE 14 100YRGAGE	15512	10.052000	15.200000	0.017745	12.841528	0.000000
15513#1	BVILLE 14 100YRGAGE	15513	2.220000	12.600000	0.007829	15.900000	0.000000
4039#1	BVILLE 14 100YRGAGE	4039	7.982000	29.600000	0.022750	7.250440	0.000000
4040#1	BVILLE 14 100YRGAGE	4040	1.502000	38.900000	0.006449	4.415208	0.000000
4063#1	BVILLE 14 100YRGAGE	4063	7.316000	27.900000	0.016482	9.542832	0.000000
4095#1	BVILLE 14 100YRGAGE	4095	3.946000	67.300000	0.041322	4.359120	0.000000
4097#1	BVILLE 14 100YRGAGE	4097	1.579000	45.800000	0.008106	7.615832	0.000000
4100#1	BVILLE 14 100YRGAGE	4100	1.615000	54.400000	0.008631	14.567464	0.000000
4134#1	BVILLE 14 100YRGAGE	4134	14.158000	39.400000	0.058286	10.534048	0.000000
4438#1	BVILLE 14 100YRGAGE	4438	0.229000	58.200000	0.003118	6.416664	0.000000
4556#1	BVILLE 14 100YRGAGE	4556	8.569000	38.200000	0.011180	7.219280	0.000000
4561#1	BVILLE 14 100YRGAGE	4561	2.836000	61.300000	0.010858	6.189360	0.000000
4563#1	BVILLE 14 100YRGAGE	4563	0.092000	19.500000	0.002595	6.964424	0.000000
4565#1	BVILLE 14 100YRGAGE	4565	0.394000	39.300000	0.008330	5.437912	0.000000
4566#1	BVILLE 14 100YRGAGE	4566	1.328000	67.000000	0.008908	5.205688	0.000000
4569#1	BVILLE 14 100YRGAGE	4569	2.166000	54.300000	0.013132	6.687920	0.000000
4570#1	BVILLE 14 100YRGAGE	4570	1.237000	51.500000	0.007921	5.559600	0.000000
4572#1	BVILLE 14 100YRGAGE	4572	0.997000	81.800000	0.004754	5.875464	0.000000
4574#1	BVILLE 14 100YRGAGE	4574	0.392000	65.000000	0.002482	6.224456	0.000000
4581#1	BVILLE 14 100YRGAGE	4581	1.530000	81.600000	0.006474	3.657528	0.000000
4582#1	BVILLE 14 100YRGAGE	4582	4.991000	43.800000	0.016482	6.293664	0.000000
4587#1	BVILLE 14 100YRGAGE	4587	7.803000	46.700000	0.016115	5.518928	0.000000
4592#1	BVILLE 14 100YRGAGE	4592	2.099000	81.900000	0.011159	5.494328	0.000000
4594#1	BVILLE 14 100YRGAGE	4594	3.194000	40.400000	0.011316	5.798384	0.000000
4595#1	BVILLE 14 100YRGAGE	4595	1.549000	61.200000	0.006935	4.734680	0.000000
4599#1	BVILLE 14 100YRGAGE	4599	3.426000	55.300000	0.014140	6.484560	0.000000
6811#1	BVILLE 14 100YRGAGE	6811	2.996000	38.600000	0.012145	12.227840	0.000000
6812#1	BVILLE 14 100YRGAGE	6812	1.388000	40.800000	0.005027	8.183272	0.000000
6814#1	BVILLE 14 100YRGAGE	6814	3.061000	20.800000	0.012994	11.152000	0.000000
6815#1	BVILLE 14 100YRGAGE	6815	0.636000	25.900000	0.005326	8.355800	0.000000
6816#1	BVILLE 14 100YRGAGE	6816	0.140000	15.700000	0.001381	8.885848	0.000000
6817#1	BVILLE 14 100YRGAGE	6817	0.190000	3.500000	0.002087	8.063880	0.000000
6818#1	BVILLE 14 100YRGAGE	6818	5.740000	22.900000	0.022958	9.182360	0.000000
6819#1	BVILLE 14 100YRGAGE	6819	1.055000	30.000000	0.008037	7.876264	0.000000
6820#1	BVILLE 14 100YRGAGE	6820	0.548000	10.600000	0.003878	5.216184	0.000000
6822#1	BVILLE 14 100YRGAGE	6822	0.286000	30.200000	0.002689	6.902760	0.000000
6828#1	BVILLE 14 100YRGAGE	6828	0.321000	42.500000	0.004173	11.517720	0.000000
6829#1	BVILLE 14 100YRGAGE	6829	0.184000	99.700000	0.006762	10.769880	0.000000
6835#1	BVILLE 14 100YRGAGE	6835	0.443000	99.400000	0.008728	5.469072	0.000000
7785#1	BVILLE 14 100YRGAGE	7785	1.693000	44.900000	0.008586	15.413704	0.000000
7787#1	BVILLE 14 100YRGAGE	7787	5.634000	43.500000	0.014578	17.416800	0.000000
7789#1	BVILLE 14 100YRGAGE	7789	0.445000	47.800000	0.006776	9.300112	0.000000
7790#1	BVILLE 14 100YRGAGE	7790	0.127000	63.600000	0.006368	6.561640	0.000000
7791#1	BVILLE 14 100YRGAGE	7791	1.188000	28.700000	0.013752	18.417856	0.000000
7792#1	BVILLE 14 100YRGAGE	7792	0.659000	41.400000	0.008474	13.060304	0.000000
7796#1	BVILLE 14 100YRGAGE	7796	2.251000	67.500000	0.010123	8.405000	0.000000
7797#1	BVILLE 14 100YRGAGE	7797	5.391000	33.800000	0.023437	12.110088	0.000000
7798#1	BVILLE 14 100YRGAGE	7798	0.710000	76.900000	0.008057	12.548296	0.000000
7800#1	BVILLE 14 100YRGAGE	7800	18.181000	13.300000	0.026469	18.595304	0.000000
8000008#1	BVILLE 14 100YRGAGE	8000008	17.923000	11.400000	0.026286	15.252000	0.000000
8000015#1	BVILLE 14 100YRGAGE	8000015	58.687000	11.700000	0.052571	14.991568	0.000000
8000016#1	BVILLE 14 100YRGAGE	8000016	17.729000	12.200000	0.017723	18.702888	0.000000
9325#1	BVILLE 14 100YRGAGE	9325	2.913000	88.700000	0.010422	4.426032	0.000000
9329#1	BVILLE 14 100YRGAGE	9329	4.628000	90.300000	0.011662	4.768136	0.000000
9333#1	BVILLE 14 100YRGAGE	9333	1.558000	78.500000	0.009874	5.170592	0.000000
9334#1	BVILLE 14 100YRGAGE	9334	1.588000	76.700000	0.006612	5.065632	0.000000
9342#1	BVILLE 14 100YRGAGE	9342	2.483000	87.600000	0.010447	6.239544	0.000000
9379#1	BVILLE 14 100YRGAGE	9379	0.283000	76.400000	0.004292	5.183712	0.000000
9382#1	BVILLE 14 100YRGAGE	9382	5.789000	39.500000	0.014463	5.071536	0.000000
9629#1	BVILLE 14 100YRGAGE	9629	19.111000	44.200000	0.046534	5.362144	0.000000
9638#1	BVILLE 14 100YRGAGE	9638	5.704000	29.400000	0.016897	10.582592	0.000000
9639#1	BVILLE 14 100YRGAGE	9639	4.507000	27.600000	0.024243	5.348040	0.000000
9647#1	BVILLE 14 100YRGAGE	9647	8.064000	13.300000	0.026491	12.155680	0.000000
9648#1	BVILLE 14 100YRGAGE	9648	0.892000	24.700000	0.006909	8.487656	0.000000
9651#1	BVILLE 14 100YRGAGE	9651	6.831000	13.000000	0.022887	15.386808	0.000000
9657#1	BVILLE 14 100YRGAGE	9657	5.685000	18.000000	0.023417	12.232104	0.000000
9664#1	BVILLE 14 100YRGAGE	9664	11.835000	13.600000	0.049495	16.588928	0.000000
9668#1	BVILLE 14 100YRGAGE	9668	2.382000	9.600000	0.013753	15.902096	0.000000
9669#1	BVILLE 14 100YRGAGE	9669	1.096000	6.800000	0.010150	11.945432	0.000000
9673#1	BVILLE 14 100YRGAGE	9673	15.708000	11.700000	0.022245	11.405872	0.000000
9675#1	BVILLE 14 100YRGAGE	9675	8.659000	25.300000	0.022498	11.181192	0.000000
9679#1	BVILLE 14 100YRGAGE	9679	4.928000	14.700000	0.011180	10.969960	0.000000
9682#1	BVILLE 14 100YRGAGE	9682	3.503000	14.500000	0.015081	16.357360	0.000000
9685#1	BVILLE 14 100YRGAGE	9685	3.333000	14.300000	0.010722	12.580768	0.000000
9686#1	BVILLE 14 100YRGAGE	9686	0.956000	3.600000	0.008495	12.873672	0.000000
9688#1	BVILLE 14 100YRGAGE	9688	7.981000	9.100000	0.021441	19.269344	0.000000
9690#1	BVILLE 14 100YRGAGE	9690	3.413000	20.800000	0.010079	12.748048	0.000000
9694#1	BVILLE 14 100YRGAGE	9694	5.056000	29.800000	0.013911	14.478248	0.000000
9806#1	BVILLE 14 100YRGAGE	9806	6.870000	22.200000	0.014968	18.113472	0.000000
9819#1	BVILLE 14 100YRGAGE	9819	8.655000	23.100000	0.030854	15.285456	0.000000
9821#1	BVILLE 14 100YRGAGE	9821	5.257000	11.100000	0.017791	14.416912	0.000000
9832#1	BVILLE 14 100YRGAGE	9832	2.356000	11.300000	0.009342	16.347520	0.000000
9834#1	BVILLE 14 100YRGAGE	9834	7.880000	20.400000	0.023163	11.888688	0.000000
9843#1	BVILLE 14 100YRGAGE	9843	5.249000	16.800000	0.010490	9.875096	0.000000
9846#1	BVILLE 14 100YRGAGE	9846	5.347000	23.900000	0.010055	15.692832	0.000000
9849#1	BVILLE 14 100YRGAGE	9849	17.095000	16.600000	0.034779	13.498840	0.000000
9865#1	BVILLE 14 100YRGAGE	9865	5.619000	26.700000	0.009297	14.935152	0.000000
MH1-A#1	BVILLE 14 100YRGAGE	MH1-A	0.899000	32.700000	0.005076	10.703296	0.000000
MH1-B#1	BVILLE 14 100YRGAGE	MH1-B	1.779000	62.700000	0.008609	5.381496	0.000000
MH10-A#1	BVILLE 14 100YRGAGE	MH10-A	82.746000	11.200000	0.058655	13.762880	0.000000
MH11-A#1	BVILLE 14 100YRGAGE	MH11-A	5.143000	18.300000	0.013728	16.069376	0.000000
MH11-B#1	BVILLE 14 100YRGAGE	MH11-B	7.860000	21.700000	0.018021	12.342640	0.000000
MH13-A#1	BVILLE 14 100YRGAGE	MH13-A	2.089000	26.500000	0.008288	19.355608	0.000000
MH13-B#1	BVILLE 14 100YRGAGE	MH13-B	1.078000	22.500000	0.003649	21.936312	0.000000
MH13-C#1	BVILLE 14 100YRGAGE	MH13-C	0.716000	7.600000	0.004891	25.103480	0.000000
MH13-D#1	BVILLE 14 100YRGAGE	MH13-D	3.179000	17.400000	0.016068	17.203928	0.000000
MH14-A#1	BVILLE 14 100YRGAGE	MH14-A	13.649000	17.200000	0.013063	15.160000	0.000000
MH14-A#2	BVILLE 14 100YRGAGE	MH14-A	3.649000	53.700000	0.017170	15.280000	0.000000
MH14-B#1	BVILLE 14 100YRGAGE	MH14-B	5.043000	6.700000	0.011663	13.816016	0.000000
MH14-C#1	BVILLE 14 100YRGAGE	MH14-C	2.183000	22.100000	0.019950	17.442712	0.000000
MH15-A#1	BVILLE 14 100YRGAGE	MH15-A	49.996000	6.000000	0.025735	17.840248	0.000000
MH15-B#1	BVILLE 14 100YRGAGE	MH15-B	28.984000	8.600000	0.016896	19.814808	0.000000
MH2-A#1	BVILLE 14 100YRGAGE	MH2-A	4.377000	71.000000	0.015498	7.621408	0.000000
MH2-B#1	BVILLE 14 100YRGAGE	MH2-B	1.120000	29.600000	0.003559	10.825640	0.000000
MH3-A#1	BVILLE 14 100YRGAGE	MH3-A	377.645000	7.100000	0.118717	14.022984	0.000000
MH3-C#1	BVILLE 14 100YRGAGE	MH3-C	7.281000	3.500000	0.011839	18.696000	0.000000
MH3-E#1	BVILLE 14 100YRGAGE	MH3-E	2.598000	5.200000	0.011182	24.178192	0.000000
MH3-F#1	BVILLE 14 100YRGAGE	MH3-F	7.730000	43.400000	0.030463	11.839816	0.000000
MH3-G#1	BVILLE 14 100YRGAGE	MH3-G	0.493000	92.000000	0.003652	9.469688	0.000000
MH3-H#1	BVILLE 14 100YRGAGE	MH3-H	47.265000	12.100000	0.048783	14.464800	0.000000
MH4-A#1	BVILLE 14 100YRGAGE	MH4-A	15.415000	4.800000	0.017125	18.195800	0.000000
MH7-A#1	BVILLE 14 100YRGAGE	MH7-A	19.673000	5.900000	0.014532	18.363408	0.000000
MH7-B#1	BVILLE 14 100YRGAGE	MH7-B	5.736000	18.400000	0.006634	11.688608	0.000000
MH8-A#1	BVILLE 14 100YRGAGE	MH8-A	16.360000	10.200000	0.027439	13.424384	0.000000
MH8-B#1	BVILLE 14 100YRGAGE	MH8-B	3.962000	8.400000	0.005303	18.511992	0.000000
MH8-C#1	BVILLE 14 100YRGAGE	MH8-C	6.376000	7.800000	0.005625	13.186584	0.000000
MH8-D#1	BVILLE 14 100YRGAGE	MH8-D	21.533000	11.600000	0.019537	13.510320	0.000000
MH9-A#1	BVILLE 14 100YRGAGE	MH9-A	12.032000	7.300000	0.012603	12.457768	0.000000
MH9-B#1	BVILLE 14 100YRGAGE	MH9-B	6.381000	2.400000	0.015267	23.724896	0.000000
NODE321#1	BVILLE 14 100YRGAGE	NODE321	3.630000	41.200000	0.012075	11.468520	0.000000
NODE322#1	BVILLE 14 100YRGAGE	NODE322	6.492000	31.200000	0.029225	12.130752	0.000000
NODE340#1	BVILLE 14 100YRGAGE	NODE340	12.743000	10.200000	0.030703	16.704056	0.000000
NODE354#1	BVILLE 14 100YRGAGE	NODE354	20.067000	6.500000	0.040083	17.826144	0.000000

[SUBAREAS]
11531#1	0.014000	0.200000	0.030000	0.400000	0.000000	OUTLET
11534#1	0.014000	0.200000	0.030000	0.400000	0.000000	OUTLET
12482#1	0.014000	0.200000	0.030000	0.400000	0.000000	OUTLET
12556#1	0.014000	0.200000	0.030000	0.400000	0.000000	OUTLET
12559#1	0.014000	0.200000	0.030000	0.400000	0.000000	OUTLET
12560#1	0.014000	0.200000	0.030000	0.400000	0.000000	OUTLET
12562#1	0.014000	0.200000	0.030000	0.400000	0.000000	OUTLET
13149#1	0.014000	0.200000	0.030000	0.400000	0.000000	OUTLET
13457#1	0.014000	0.200000	0.030000	0.400000	0.000000	OUTLET
13698#1	0.014000	0.200000	0.030000	0.400000	0.000000	OUTLET
15512#1	0.014000	0.200000	0.030000	0.400000	0.000000	OUTLET
15513#1	0.014000	0.200000	0.030000	0.400000	0.000000	OUTLET
4039#1	0.014000	0.200000	0.030000	0.400000	0.000000	OUTLET
4040#1	0.014000	0.200000	0.030000	0.400000	0.000000	OUTLET
4063#1	0.014000	0.200000	0.030000	0.400000	0.000000	OUTLET
4095#1	0.014000	0.200000	0.030000	0.400000	0.000000	OUTLET
4097#1	0.014000	0.200000	0.030000	0.400000	0.000000	OUTLET
4100#1	0.014000	0.200000	0.030000	0.400000	0.000000	OUTLET
4134#1	0.014000	0.200000	0.030000	0.400000	0.000000	OUTLET
4438#1	0.014000	0.200000	0.030000	0.400000	0.000000	OUTLET
4556#1	0.014000	0.200000	0.030000	0.400000	0.000000	OUTLET
4561#1	0.014000	0.200000	0.030000	0.400000	0.000000	OUTLET
4563#1	0.014000	0.200000	0.030000	0.400000	0.000000	OUTLET
4565#1	0.014000	0.200000	0.030000	0.400000	0.000000	OUTLET
4566#1	0.014000	0.200000	0.030000	0.400000	0.000000	OUTLET
4569#1	0.014000	0.200000	0.030000	0.400000	0.000000	OUTLET
4570#1	0.014000	0.200000	0.030000	0.400000	0.000000	OUTLET
4572#1	0.014000	0.200000	0.030000	0.400000	0.000000	OUTLET
4574#1	0.014000	0.200000	0.030000	0.400000	0.000000	OUTLET
4581#1	0.014000	0.200000	0.030000	0.400000	0.000000	OUTLET
4582#1	0.014000	0.200000	0.030000	0.400000	0.000000	OUTLET
4587#1	0.014000	0.200000	0.030000	0.400000	0.000000	OUTLET
4592#1	0.014000	0.200000	0.030000	0.400000	0.000000	OUTLET
4594#1	0.014000	0.200000	0.030000	0.400000	0.000000	OUTLET
4595#1	0.014000	0.200000	0.030000	0.400000	0.000000	OUTLET
4599#1	0.014000	0.200000	0.030000	0.400000	0.000000	OUTLET
6811#1	0.014000	0.200000	0.030000	0.400000	0.000000	OUTLET
6812#1	0.014000	0.200000	0.030000	0.400000	0.000000	OUTLET
6814#1	0.014000	0.200000	0.030000	0.400000	0.000000	OUTLET
6815#1	0.014000	0.200000	0.030000	0.400000	0.000000	OUTLET
6816#1	0.014000	0.200000	0.030000	0.400000	0.000000	OUTLET
6817#1	0.014000	0.200000	0.030000	0.400000	0.000000	OUTLET
6818#1	0.014000	0.200000	0.030000	0.400000	0.000000	OUTLET
6819#1	0.014000	0.200000	0.030000	0.400000	0.000000	OUTLET
6820#1	0.014000	0.200000	0.030000	0.400000	0.000000	OUTLET
6822#1	0.014000	0.200000	0.030000	0.400000	0.000000	OUTLET
6828#1	0.014000	0.200000	0.030000	0.400000	0.000000	OUTLET
6829#1	0.014000	0.200000	0.030000	0.400000	0.000000	OUTLET
6835#1	0.014000	0.200000	0.030000	0.400000	0.000000	OUTLET
7785#1	0.014000	0.200000	0.030000	0.400000	0.000000	OUTLET
7787#1	0.014000	0.200000	0.030000	0.400000	0.000000	OUTLET
7789#1	0.014000	0.200000	0.030000	0.400000	0.000000	OUTLET
7790#1	0.014000	0.200000	0.030000	0.400000	0.000000	OUTLET
7791#1	0.014000	0.200000	0.030000	0.400000	0.000000	OUTLET
7792#1	0.014000	0.200000	0.030000	0.400000	0.000000	OUTLET
7796#1	0.014000	0.200000	0.030000	0.400000	0.000000	OUTLET
7797#1	0.014000	0.200000	0.030000	0.400000	0.000000	OUTLET
7798#1	0.014000	0.200000	0.030000	0.400000	0.000000	OUTLET
7800#1	0.014000	0.200000	0.030000	0.400000	0.000000	OUTLET
8000008#1	0.014000	0.200000	0.030000	0.400000	0.000000	OUTLET
8000015#1	0.014000	0.200000	0.030000	0.400000	0.000000	OUTLET
8000016#1	0.014000	0.200000	0.030000	0.400000	0.000000	OUTLET
9325#1	0.014000	0.200000	0.030000	0.400000	0.000000	OUTLET
9329#1	0.014000	0.200000	0.030000	0.400000	0.000000	OUTLET
9333#1	0.014000	0.200000	0.030000	0.400000	0.000000	OUTLET
9334#1	0.014000	0.200000	0.030000	0.400000	0.000000	OUTLET
9342#1	0.014000	0.200000	0.030000	0.400000	0.000000	OUTLET
9379#1	0.014000	0.200000	0.030000	0.400000	0.000000	OUTLET
9382#1	0.014000	0.200000	0.030000	0.400000	0.000000	OUTLET
9629#1	0.014000	0.200000	0.030000	0.400000	0.000000	OUTLET
9638#1	0.014000	0.200000	0.030000	0.400000	0.000000	OUTLET
9639#1	0.014000	0.200000	0.030000	0.400000	0.000000	OUTLET
9647#1	0.014000	0.200000	0.030000	0.400000	0.000000	OUTLET
9648#1	0.014000	0.200000	0.030000	0.400000	0.000000	OUTLET
9651#1	0.014000	0.200000	0.030000	0.400000	0.000000	OUTLET
9657#1	0.014000	0.200000	0.030000	0.400000	0.000000	OUTLET
9664#1	0.014000	0.200000	0.030000	0.400000	0.000000	OUTLET
9668#1	0.014000	0.200000	0.030000	0.400000	0.000000	OUTLET
9669#1	0.014000	0.200000	0.030000	0.400000	0.000000	OUTLET
9673#1	0.014000	0.200000	0.030000	0.400000	0.000000	OUTLET
9675#1	0.014000	0.200000	0.030000	0.400000	0.000000	OUTLET
9679#1	0.014000	0.200000	0.030000	0.400000	0.000000	OUTLET
9682#1	0.014000	0.200000	0.030000	0.400000	0.000000	OUTLET
9685#1	0.014000	0.200000	0.030000	0.400000	0.000000	OUTLET
9686#1	0.014000	0.200000	0.030000	0.400000	0.000000	OUTLET
9688#1	0.014000	0.200000	0.030000	0.400000	0.000000	OUTLET
9690#1	0.014000	0.200000	0.030000	0.400000	0.000000	OUTLET
9694#1	0.014000	0.200000	0.030000	0.400000	0.000000	OUTLET
9806#1	0.014000	0.200000	0.030000	0.400000	0.000000	OUTLET
9819#1	0.014000	0.200000	0.030000	0.400000	0.000000	OUTLET
9821#1	0.014000	0.200000	0.030000	0.400000	0.000000	OUTLET
9832#1	0.014000	0.200000	0.030000	0.400000	0.000000	OUTLET
9834#1	0.014000	0.200000	0.030000	0.400000	0.000000	OUTLET
9843#1	0.014000	0.200000	0.030000	0.400000	0.000000	OUTLET
9846#1	0.014000	0.200000	0.030000	0.400000	0.000000	OUTLET
9849#1	0.014000	0.200000	0.030000	0.400000	0.000000	OUTLET
9865#1	0.014000	0.200000	0.030000	0.400000	0.000000	OUTLET
MH1-A#1	0.014000	0.200000	0.030000	0.400000	0.000000	OUTLET
MH1-B#1	0.014000	0.200000	0.030000	0.400000	0.000000	OUTLET
MH10-A#1	0.014000	0.200000	0.030000	0.400000	0.000000	OUTLET
MH11-A#1	0.014000	0.200000	0.030000	0.400000	0.000000	OUTLET
MH11-B#1	0.014000	0.200000	0.030000	0.400000	0.000000	OUTLET
MH13-A#1	0.014000	0.200000	0.030000	0.400000	0.000000	OUTLET
MH13-B#1	0.014000	0.200000	0.030000	0.400000	0.000000	OUTLET
MH13-C#1	0.014000	0.200000	0.030000	0.400000	0.000000	OUTLET
MH13-D#1	0.014000	0.200000	0.030000	0.400000	0.000000	OUTLET
MH14-A#1	0.014000	0.200000	0.030000	0.400000	0.000000	OUTLET
MH14-A#2	0.014000	0.200000	0.030000	0.400000	0.000000	OUTLET
MH14-B#1	0.014000	0.200000	0.030000	0.400000	0.000000	OUTLET
MH14-C#1	0.014000	0.200000	0.030000	0.400000	0.000000	OUTLET
MH15-A#1	0.014000	0.200000	0.030000	0.400000	0.000000	OUTLET
MH15-B#1	0.014000	0.200000	0.030000	0.400000	0.000000	OUTLET
MH2-A#1	0.014000	0.200000	0.030000	0.400000	0.000000	OUTLET
MH2-B#1	0.014000	0.200000	0.030000	0.400000	0.000000	OUTLET
MH3-A#1	0.014000	0.200000	0.030000	0.400000	0.000000	OUTLET
MH3-C#1	0.014000	0.200000	0.030000	0.400000	0.000000	OUTLET
MH3-E#1	0.014000	0.200000	0.030000	0.400000	0.000000	OUTLET
MH3-F#1	0.014000	0.200000	0.030000	0.400000	0.000000	OUTLET
MH3-G#1	0.014000	0.200000	0.030000	0.400000	0.000000	OUTLET
MH3-H#1	0.014000	0.200000	0.030000	0.400000	0.000000	OUTLET
MH4-A#1	0.014000	0.200000	0.030000	0.400000	0.000000	OUTLET
MH7-A#1	0.014000	0.200000	0.030000	0.400000	0.000000	OUTLET
MH7-B#1	0.014000	0.200000	0.030000	0.400000	0.000000	OUTLET
MH8-A#1	0.014000	0.200000	0.030000	0.400000	0.000000	OUTLET
MH8-B#1	0.014000	0.200000	0.030000	0.400000	0.000000	OUTLET
MH8-C#1	0.014000	0.200000	0.030000	0.400000	0.000000	OUTLET
MH8-D#1	0.014000	0.200000	0.030000	0.400000	0.000000	OUTLET
MH9-A#1	0.014000	0.200000	0.030000	0.400000	0.000000	OUTLET
MH9-B#1	0.014000	0.200000	0.030000	0.400000	0.000000	OUTLET
NODE321#1	0.014000	0.200000	0.030000	0.400000	0.000000	OUTLET
NODE322#1	0.014000	0.200000	0.030000	0.400000	0.000000	OUTLET
NODE340#1	0.014000	0.200000	0.030000	0.400000	0.000000	OUTLET
NODE354#1	0.014000	0.200000	0.030000	0.400000	0.000000	OUTLET

[INFILTRATION]
11531#1	4.330000	0.860000	0.250000
11534#1	4.330000	0.860000	0.250000
12482#1	4.330000	0.860000	0.250000
12556#1	4.330000	0.860000	0.250000
12559#1	4.330000	0.860000	0.250000
12560#1	4.330000	0.860000	0.250000
12562#1	4.330000	0.860000	0.250000
13149#1	4.330000	0.860000	0.250000
13457#1	4.330000	0.860000	0.250000
13698#1	4.330000	0.860000	0.250000
15512#1	4.330000	0.860000	0.250000
15513#1	4.330000	0.860000	0.250000
4039#1	4.330000	0.860000	0.250000
4040#1	4.330000	0.860000	0.250000
4063#1	4.330000	0.860000	0.250000
4095#1	4.330000	0.860000	0.250000
4097#1	4.330000	0.860000	0.250000
4100#1	4.330000	0.860000	0.250000
4134#1	4.330000	0.860000	0.250000
4438#1	4.330000	0.860000	0.250000
4556#1	4.330000	0.860000	0.250000
4561#1	4.330000	0.860000	0.250000
4563#1	4.330000	0.860000	0.250000
4565#1	4.330000	0.860000	0.250000
4566#1	4.330000	0.860000	0.250000
4569#1	4.330000	0.860000	0.250000
4570#1	4.330000	0.860000	0.250000
4572#1	4.330000	0.860000	0.250000
4574#1	4.330000	0.860000	0.250000
4581#1	4.330000	0.860000	0.250000
4582#1	4.330000	0.860000	0.250000
4587#1	4.330000	0.860000	0.250000
4592#1	4.330000	0.860000	0.250000
4594#1	4.330000	0.860000	0.250000
4595#1	4.330000	0.860000	0.250000
4599#1	4.330000	0.860000	0.250000
6811#1	4.330000	0.860000	0.250000
6812#1	4.330000	0.860000	0.250000
6814#1	4.330000	0.860000	0.250000
6815#1	4.330000	0.860000	0.250000
6816#1	4.330000	0.860000	0.250000
6817#1	4.330000	0.860000	0.250000
6818#1	4.330000	0.860000	0.250000
6819#1	4.330000	0.860000	0.250000
6820#1	4.330000	0.860000	0.250000
6822#1	4.330000	0.860000	0.250000
6828#1	4.330000	0.860000	0.250000
6829#1	4.330000	0.860000	0.250000
6835#1	4.330000	0.860000	0.250000
7785#1	4.330000	0.860000	0.250000
7787#1	4.330000	0.860000	0.250000
7789#1	4.330000	0.860000	0.250000
7790#1	4.330000	0.860000	0.250000
7791#1	4.330000	0.860000	0.250000
7792#1	4.330000	0.860000	0.250000
7796#1	4.330000	0.860000	0.250000
7797#1	4.330000	0.860000	0.250000
7798#1	4.330000	0.860000	0.250000
7800#1	4.330000	0.860000	0.250000
8000008#1	4.330000	0.860000	0.250000
8000015#1	4.330000	0.860000	0.250000
8000016#1	4.330000	0.860000	0.250000
9325#1	4.330000	0.860000	0.250000
9329#1	4.330000	0.860000	0.250000
9333#1	4.330000	0.860000	0.250000
9334#1	4.330000	0.860000	0.250000
9342#1	4.330000	0.860000	0.250000
9379#1	4.330000	0.860000	0.250000
9382#1	4.330000	0.860000	0.250000
9629#1	4.330000	0.860000	0.250000
9638#1	4.330000	0.860000	0.250000
9639#1	4.330000	0.860000	0.250000
9647#1	4.330000	0.860000	0.250000
9648#1	4.330000	0.860000	0.250000
9651#1	4.330000	0.860000	0.250000
9657#1	4.330000	0.860000	0.250000
9664#1	4.330000	0.860000	0.250000
9668#1	4.330000	0.860000	0.250000
9669#1	4.330000	0.860000	0.250000
9673#1	4.330000	0.860000	0.250000
9675#1	4.330000	0.860000	0.250000
9679#1	4.330000	0.860000	0.250000
9682#1	4.330000	0.860000	0.250000
9685#1	4.330000	0.860000	0.250000
9686#1	4.330000	0.860000	0.250000
9688#1	4.330000	0.860000	0.250000
9690#1	4.330000	0.860000	0.250000
9694#1	4.330000	0.860000	0.250000
9806#1	4.330000	0.860000	0.250000
9819#1	4.330000	0.860000	0.250000
9821#1	4.330000	0.860000	0.250000
9832#1	4.330000	0.860000	0.250000
9834#1	4.330000	0.860000	0.250000
9843#1	4.330000	0.860000	0.250000
9846#1	4.330000	0.860000	0.250000
9849#1	4.330000	0.860000	0.250000
9865#1	4.330000	0.860000	0.250000
MH1-A#1	4.330000	0.860000	0.250000
MH1-B#1	4.330000	0.860000	0.250000
MH10-A#1	4.330000	0.860000	0.250000
MH11-A#1	4.330000	0.860000	0.250000
MH11-B#1	4.330000	0.860000	0.250000
MH13-A#1	4.330000	0.860000	0.250000
MH13-B#1	4.330000	0.860000	0.250000
MH13-C#1	4.330000	0.860000	0.250000
MH13-D#1	4.330000	0.860000	0.250000
MH14-A#1	4.330000	0.860000	0.250000
MH14-A#2	4.330000	0.860000	0.250000
MH14-B#1	4.330000	0.860000	0.250000
MH14-C#1	4.330000	0.860000	0.250000
MH15-A#1	4.330000	0.860000	0.250000
MH15-B#1	4.330000	0.860000	0.250000
MH2-A#1	4.330000	0.860000	0.250000
MH2-B#1	4.330000	0.860000	0.250000
MH3-A#1	4.330000	0.860000	0.250000
MH3-C#1	4.330000	0.860000	0.250000
MH3-E#1	4.330000	0.860000	0.250000
MH3-F#1	4.330000	0.860000	0.250000
MH3-G#1	4.330000	0.860000	0.250000
MH3-H#1	4.330000	0.860000	0.250000
MH4-A#1	4.330000	0.860000	0.250000
MH7-A#1	4.330000	0.860000	0.250000
MH7-B#1	4.330000	0.860000	0.250000
MH8-A#1	4.330000	0.860000	0.250000
MH8-B#1	4.330000	0.860000	0.250000
MH8-C#1	4.330000	0.860000	0.250000
MH8-D#1	4.330000	0.860000	0.250000
MH9-A#1	4.330000	0.860000	0.250000
MH9-B#1	4.330000	0.860000	0.250000
NODE321#1	4.330000	0.860000	0.250000
NODE322#1	4.330000	0.860000	0.250000
NODE340#1	4.330000	0.860000	0.250000
NODE354#1	4.330000	0.860000	0.250000

[AQUIFERS]

[GROUNDWATER]

[GWF]

[SNOWPACKS]

[JUNCTIONS]
; CB_11531
11531	1004.190000	7.541000	0.000000	0.000000	0.000000
; DMH_11533
11533	1027.360000	12.900000	0.000000	0.000000	0.000000
; FES_11534
11534	1007.360000	1.750000	0.000000	0.000000	0.000000
; DMH_12482
12482	888.300000	6.730000	0.000000	0.000000	0.000000
; CBBH_12544
12544	908.910000	4.668000	0.000000	0.000000	0.000000
; FES_12556
12556	910.560000	6.680000	0.000000	0.000000	0.000000
; CB_12559
12559	950.120000	4.710000	0.000000	0.000000	0.000000
; CB_12560
12560	950.050000	4.850000	0.000000	0.000000	0.000000
; CB_12562
12562	944.900000	6.000000	0.000000	0.000000	0.000000
; DMH_12565
12565	940.000000	7.941000	0.000000	0.000000	0.000000
; DMH_13149
13149	897.650000	6.490000	0.000000	0.000000	0.000000
; DMH_13457
13457	1033.080000	10.418000	0.000000	0.000000	0.000000
; LIFT_13691
13691	981.780000	18.577000	0.000000	0.000000	0.000000
; DMH_13698
13698	919.090000	2.230000	0.000000	0.000000	0.000000
; DMH_15397
15397	1020.040000	9.700000	0.000000	0.000000	0.000000
; DMH_15407
15407	886.530000	5.955000	0.000000	0.000000	0.000000
; CBBH_15512
15512	865.000000	5.500000	0.000000	0.000000	0.000000
; CBBH_15513
15513	865.000000	8.277000	0.000000	0.000000	0.000000
4039	920.220000	6.726000	0.000000	0.000000	0.000000
; CB_4040
4040	919.860000	5.603000	0.000000	0.000000	0.000000
; CB_4063
4063	913.110000	7.005000	0.000000	0.000000	0.000000
; DMH_4095
4095	880.290000	6.983000	0.000000	0.000000	0.000000
; DMH_4097
4097	874.300000	9.749000	0.000000	0.000000	0.000000
; DMH_4100
4100	860.250000	10.193000	0.000000	0.000000	0.000000
; DMH_4134
4134	855.320200	7.429800	0.000000	0.000000	0.000000
; DMH_4151
4151	856.270000	7.698000	0.000000	0.000000	0.000000
; CB_4438
4438	869.910000	6.407000	0.000000	0.000000	0.000000
; CBBH_4556
4556	868.900000	4.298000	0.000000	0.000000	0.000000
; CB_4561
4561	862.700000	6.565000	0.000000	0.000000	0.000000
; DMH_4562
4562	865.000000	5.961000	0.000000	0.000000	0.000000
; CB_4563
4563	861.980000	6.683000	0.000000	0.000000	0.000000
; DMH_4564
4564	860.470000	6.161000	0.000000	0.000000	0.000000
; CB_4565
4565	860.040000	5.546000	0.000000	0.000000	0.000000
; CB_4566
4566	859.800000	5.558000	0.000000	0.000000	0.000000
; DMH_4569
4569	859.000000	5.867000	0.000000	0.000000	0.000000
; CB_4570
4570	859.870000	5.946000	0.000000	0.000000	0.000000
; CB_4572
4572	864.150000	6.298000	0.000000	0.000000	0.000000
; DMH_4574
4574	855.760000	7.268000	0.000000	0.000000	0.000000
; DMH_4579
4579	856.580000	9.602000	0.000000	0.000000	0.000000
; CB_4581
4581	878.500000	10.592000	0.000000	0.000000	0.000000
; CB_4582
4582	877.900000	8.267000	0.000000	0.000000	0.000000
; CB_4587
4587	876.500000	6.841000	0.000000	0.000000	0.000000
; CBBH_4592
4592	879.710000	5.322000	0.000000	0.000000	0.000000
; CBBH_4594
4594	874.150000	4.829000	0.000000	0.000000	0.000000
; CB_4595
4595	872.700000	6.714000	0.000000	0.000000	0.000000
; CB_4599
4599	868.800000	6.469000	0.000000	0.000000	0.000000
; CB_6811
6811	1074.070000	6.667000	0.000000	0.000000	0.000000
; CB_6812
6812	1072.510000	10.766000	0.000000	0.000000	0.000000
; CB_6814
6814	1071.300000	7.977000	0.000000	0.000000	0.000000
; CB_6815
6815	1070.300000	8.076000	0.000000	0.000000	0.000000
; CB_6816
6816	1068.820000	5.704000	0.000000	0.000000	0.000000
; CB_6817
6817	1064.250000	5.763000	0.000000	0.000000	0.000000
; CB_6818
6818	1061.620000	4.583000	0.000000	0.000000	0.000000
; CB_6819
6819	1061.430000	5.404000	0.000000	0.000000	0.000000
; CB_6820
6820	1060.530000	6.276000	0.000000	0.000000	0.000000
; CB_6822
6822	1052.850000	12.816000	0.000000	0.000000	0.000000
; CB_6828
6828	1005.820000	6.694000	0.000000	0.000000	0.000000
; CB_6829
6829	1004.890000	6.899000	0.000000	0.000000	0.000000
; DMH_6830
6830	998.810000	12.279000	0.000000	0.000000	0.000000
; CB_6833
6833	1004.530000	7.224000	0.000000	0.000000	0.000000
; CB_6835
6835	1004.770000	7.023000	0.000000	0.000000	0.000000
; CB_7785
7785	1015.740000	10.953000	0.000000	0.000000	0.000000
; CB_7787
7787	1003.540000	8.047000	0.000000	0.000000	0.000000
; CB_7789
7789	1006.330000	7.862000	0.000000	0.000000	0.000000
; CB_7790
7790	1006.240000	8.045000	0.000000	0.000000	0.000000
; CB_7791
7791	1006.570000	9.849000	0.000000	0.000000	0.000000
; CB_7792
7792	1032.340000	6.767000	0.000000	0.000000	0.000000
; CB_7796
7796	996.050000	8.349000	0.000000	0.000000	0.000000
; CB_7797
7797	992.970000	20.845000	0.000000	0.000000	0.000000
; DMH_7798
7798	993.290000	20.754000	0.000000	0.000000	0.000000
; CB_7799
7799	996.290000	5.138000	0.000000	0.000000	0.000000
; FES_7800
7800	996.720000	1.500000	0.000000	0.000000	0.000000
; DMH_9324
9324	882.890000	5.496000	0.000000	0.000000	0.000000
; CB_9325
9325	882.760000	4.673000	0.000000	0.000000	0.000000
; CB_9329
9329	883.300000	4.518000	0.000000	0.000000	0.000000
; CB_9333
9333	883.620000	5.239000	0.000000	0.000000	0.000000
; CB_9334
9334	881.800000	6.541000	0.000000	0.000000	0.000000
; CB_9342
9342	880.500000	5.131000	0.000000	0.000000	0.000000
9371	884.320000	8.014000	0.000000	0.000000	0.000000
9373	886.860000	6.214000	0.000000	0.000000	0.000000
9374	888.000000	7.277000	0.000000	0.000000	0.000000
; DMH_9379
9379	878.200000	10.551000	0.000000	0.000000	0.000000
9381	880.080000	12.032000	0.000000	0.000000	0.000000
; CB_9382
9382	879.080000	13.148000	0.000000	0.000000	0.000000
9625	853.783000	6.217000	0.000000	0.000000	0.000000
9629	854.012000	6.374000	0.000000	0.000000	0.000000
; DMH_9638
9638	894.000000	11.132000	0.000000	0.000000	0.000000
; DMH_9639
9639	893.600000	8.467000	0.000000	0.000000	0.000000
; CB_9647
9647	888.500000	6.464000	0.000000	0.000000	0.000000
; DMH_9648
9648	888.000000	7.450000	0.000000	0.000000	0.000000
; DMH_9649
9649	884.000000	11.780000	0.000000	0.000000	0.000000
; DMH_9650