[TITLE]
;;Project Title/Notes

[OPTIONS]
;;Option             Value
FLOW_UNITS           CFS
INFILTRATION         CURVE_NUMBER
FLOW_ROUTING         DYNWAVE
LINK_OFFSETS         DEPTH
MIN_SLOPE            0
ALLOW_PONDING        YES
SKIP_STEADY_STATE    NO

START_DATE           01/01/2002
START_TIME           00:00:00
REPORT_START_DATE    01/01/2002
REPORT_START_TIME    01:00:00
END_DATE             01/02/2002
END_TIME             00:00:00
SWEEP_START          01/01
SWEEP_END            12/31
DRY_DAYS             5.000000
REPORT_STEP          00:01:00
WET_STEP             00:01:00
DRY_STEP             01:00:00
ROUTING_STEP         0:00:10 

INERTIAL_DAMPING     NONE
NORMAL_FLOW_LIMITED  BOTH
FORCE_MAIN_EQUATION  H-W
VARIABLE_STEP        0.75
LENGTHENING_STEP     0
MIN_SURFAREA         0
MAX_TRIALS           0
HEAD_TOLERANCE       0
SYS_FLOW_TOL         5
LAT_FLOW_TOL         5
MINIMUM_STEP         0.5
THREADS              1

[EVAPORATION]
;;Data Source    Parameters
;;-------------- ----------------
CONSTANT         0.0
DRY_ONLY         NO

[RAINGAGES]
;;Name           Format    Interval SCF      Source    
;;-------------- --------- ------ ------ ----------
RG               CUMULATIVE 0.050000 1.000000 TIMESERIES 002-YR-6HR      

[SUBCATCHMENTS]
;;Name           Rain Gage        Outlet           Area     %Imperv  Width    %Slope   CurbLen  SnowPack        
;;-------------- ---------------- ---------------- -------- -------- -------- -------- -------- ----------------
COULEE_1-1058_IMP RG               JCT-012          0.769000 100.000000 500.000000 0.500000 0.000000                 
COULEE_1-1058_PER RG               JCT-012          30.647000 0.000000 500.000000 0.500000 0.000000                 
COULEE_1-1060_IMP RG               JCT-16           0.000000 100.000000 500.000000 0.500000 0.000000                 
COULEE_1-1060_PER RG               JCT-16           15.417000 0.000000 500.000000 0.500000 0.000000                 
COULEE_1-1068_IMP RG               JCT-013          0.000000 100.000000 500.000000 0.500000 0.000000                 
COULEE_1-1068_PER RG               JCT-013          5.899000 0.000000 500.000000 0.500000 0.000000                 
COULEE_1-1076_IMP RG               JCT-017          0.073000 100.000000 500.000000 0.500000 0.000000                 
COULEE_1-1076_PER RG               JCT-017          36.828000 0.000000 500.000000 0.500000 0.000000                 
COULEE_1-1078_IMP RG               JCT-008          0.000000 100.000000 500.000000 0.500000 0.000000                 
COULEE_1-1078_PER RG               JCT-008          6.242000 0.000000 500.000000 0.500000 0.000000                 
COULEE_1-1080_IMP RG               JCT-006          1.430000 100.000000 500.000000 0.500000 0.000000                 
COULEE_1-1080_PER RG               JCT-006          55.613000 0.000000 500.000000 0.500000 0.000000                 
COULEE_1-1082_IMP RG               JCT-14           0.000000 100.000000 500.000000 0.500000 0.000000                 
COULEE_1-1082_PER RG               JCT-14           10.360000 0.000000 500.000000 0.500000 0.000000                 
COULEE_1-1090_IMP RG               JCT-015          0.000000 100.000000 500.000000 0.500000 0.000000                 
COULEE_1-1090_PER RG               JCT-015          14.980000 0.000000 500.000000 0.500000 0.000000                 
COULEE_1-1092_IMP RG               JCT-007          1.020000 100.000000 500.000000 0.500000 0.000000                 
COULEE_1-1092_PER RG               JCT-007          6.850000 0.000000 500.000000 0.500000 0.000000                 
COULEE_1-1094_IMP RG               JCT-009          1.654000 100.000000 500.000000 0.500000 0.000000                 
COULEE_1-1094_PER RG               JCT-009          18.083000 0.000000 500.000000 0.500000 0.000000                 
COULEE_1-1096_IMP RG               JCT-018          1.609000 100.000000 500.000000 0.500000 0.000000                 
COULEE_1-1096_PER RG               JCT-018          28.514000 0.000000 500.000000 0.500000 0.000000                 
COULEE_1-1098_IMP RG               JCT-049          1.284000 100.000000 500.000000 0.500000 0.000000                 
COULEE_1-1098_PER RG               JCT-049          6.479000 0.000000 500.000000 0.500000 0.000000                 
COULEE_1-1100_IMP RG               JCT-315          1.871000 100.000000 500.000000 0.500000 0.000000                 
COULEE_1-1100_PER RG               JCT-315          21.530000 0.000000 500.000000 0.500000 0.000000                 
COULEE_1-1102_IMP RG               JCT-10           0.117000 100.000000 500.000000 0.500000 0.000000                 
COULEE_1-1102_PER RG               JCT-10           7.896000 0.000000 500.000000 0.500000 0.000000                 
COULEE_1-1104_IMP RG               JCT-12           1.160000 100.000000 500.000000 0.500000 0.000000                 
COULEE_1-1104_PER RG               JCT-12           9.869000 0.000000 500.000000 0.500000 0.000000                 
COULEE_1-1106_IMP RG               JCT-12           1.743000 100.000000 500.000000 0.500000 0.000000                 
COULEE_1-1106_PER RG               JCT-12           33.211000 0.000000 500.000000 0.500000 0.000000                 
COULEE_1-1108_IMP RG               JCT-002          0.000000 100.000000 500.000000 0.500000 0.000000                 
COULEE_1-1108_PER RG               JCT-002          8.825000 0.000000 500.000000 0.500000 0.000000                 
COULEE_2-1016_IMP RG               JCT-88           0.000000 100.000000 500.000000 0.500000 0.000000                 
COULEE_2-1016_PER RG               JCT-88           8.973000 0.000000 500.000000 0.500000 0.000000                 
COULEE_2-1018_IMP RG               JCT-76           0.000000 100.000000 500.000000 0.500000 0.000000                 
COULEE_2-1018_PER RG               JCT-76           7.076000 0.000000 500.000000 0.500000 0.000000                 
COULEE_2-1024_IMP RG               JCT-80           0.000000 100.000000 500.000000 0.500000 0.000000                 
COULEE_2-1024_PER RG               JCT-80           15.180000 0.000000 500.000000 0.500000 0.000000                 
COULEE_2-1028_IMP RG               JCT-68           0.000000 100.000000 500.000000 0.500000 0.000000                 
COULEE_2-1028_PER RG               JCT-68           3.242000 0.000000 500.000000 0.500000 0.000000                 
COULEE_2-1030_IMP RG               JCT-90           0.000000 100.000000 500.000000 0.500000 0.000000                 
COULEE_2-1030_PER RG               JCT-90           9.738000 0.000000 500.000000 0.500000 0.000000                 
COULEE_2-1032_IMP RG               JCT-94           0.000000 100.000000 500.000000 0.500000 0.000000                 
COULEE_2-1032_PER RG               JCT-94           26.477000 0.000000 500.000000 0.500000 0.000000                 
COULEE_2-1034_IMP RG               JCT-279          0.000000 100.000000 500.000000 0.500000 0.000000                 
COULEE_2-1034_PER RG               JCT-279          19.101000 0.000000 500.000000 0.500000 0.000000                 
COULEE_2-1036_IMP RG               JCT-301          0.000000 100.000000 500.000000 0.500000 0.000000                 
COULEE_2-1036_PER RG               JCT-301          15.155000 0.000000 500.000000 0.500000 0.000000                 
COULEE_2-1038_IMP RG               JCT-060          0.805000 100.000000 500.000000 0.500000 0.000000                 
COULEE_2-1038_PER RG               JCT-060          28.154000 0.000000 500.000000 0.500000 0.000000                 
COULEE_2-1040_IMP RG               JCT-287          0.738000 100.000000 500.000000 0.500000 0.000000                 
COULEE_2-1040_PER RG               JCT-287          2.025000 0.000000 500.000000 0.500000 0.000000                 
COULEE_2-1042_IMP RG               JCT-283          0.839000 100.000000 500.000000 0.500000 0.000000                 
COULEE_2-1042_PER RG               JCT-283          9.703000 0.000000 500.000000 0.500000 0.000000                 
COULEE_2-1044_IMP RG               JCT-291          1.110000 100.000000 500.000000 0.500000 0.000000                 
COULEE_2-1044_PER RG               JCT-291          6.410000 0.000000 500.000000 0.500000 0.000000                 
COULEE_2-1046_IMP RG               JCT-295          1.083000 100.000000 500.000000 0.500000 0.000000                 
COULEE_2-1046_PER RG               JCT-295          10.641000 0.000000 500.000000 0.500000 0.000000                 
COULEE_2-1048_IMP RG               JCT-048          1.704000 100.000000 500.000000 0.500000 0.000000                 
COULEE_2-1048_PER RG               JCT-048          10.115000 0.000000 500.000000 0.500000 0.000000                 
COULEE_2-1050_IMP RG               JCT-059          1.354000 100.000000 500.000000 0.500000 0.000000                 
COULEE_2-1050_PER RG               JCT-059          13.276000 0.000000 500.000000 0.500000 0.000000                 
COULEE_2-1052_IMP RG               JCT-068          0.069000 100.000000 500.000000 0.500000 0.000000                 
COULEE_2-1052_PER RG               JCT-068          4.990000 0.000000 500.000000 0.500000 0.000000                 
COULEE_2-1054_IMP RG               JCT-293          0.239000 100.000000 500.000000 0.500000 0.000000                 
COULEE_2-1054_PER RG               JCT-293          5.307000 0.000000 500.000000 0.500000 0.000000                 
COULEE_2-1056_IMP RG               JCT-074          0.905000 100.000000 500.000000 0.500000 0.000000                 
COULEE_2-1056_PER RG               JCT-074          4.312000 0.000000 500.000000 0.500000 0.000000                 
COULEE_2-1058_IMP RG               JCT-075          0.000000 100.000000 500.000000 0.500000 0.000000                 
COULEE_2-1058_PER RG               JCT-075          5.359000 0.000000 500.000000 0.500000 0.000000                 
COULEE_2-1062_IMP RG               JCT-073          0.395000 100.000000 500.000000 0.500000 0.000000                 
COULEE_2-1062_PER RG               JCT-073          8.961000 0.000000 500.000000 0.500000 0.000000                 
COULEE_2-1064_IMP RG               JCT-073          0.317000 100.000000 500.000000 0.500000 0.000000                 
COULEE_2-1064_PER RG               JCT-073          4.752000 0.000000 500.000000 0.500000 0.000000                 
COULEE_2-1066_IMP RG               JCT-069          0.220000 100.000000 500.000000 0.500000 0.000000                 
COULEE_2-1066_PER RG               JCT-069          5.825000 0.000000 500.000000 0.500000 0.000000                 
COULEE_2-1070_IMP RG               JCT-047          0.000000 100.000000 500.000000 0.500000 0.000000                 
COULEE_2-1070_PER RG               JCT-047          16.249000 0.000000 500.000000 0.500000 0.000000                 
COULEE_2-1072_IMP RG               JCT-063          0.000000 100.000000 500.000000 0.500000 0.000000                 
COULEE_2-1072_PER RG               JCT-063          10.904000 0.000000 500.000000 0.500000 0.000000                 
COULEE_2-1078_IMP RG               JCT-076          0.000000 100.000000 500.000000 0.500000 0.000000                 
COULEE_2-1078_PER RG               JCT-076          10.508000 0.000000 500.000000 0.500000 0.000000                 
COULEE_2-1080_IMP RG               JCT-066          0.000000 100.000000 500.000000 0.500000 0.000000                 
COULEE_2-1080_PER RG               JCT-066          10.865000 0.000000 500.000000 0.500000 0.000000                 
COULEE_2-1082_IMP RG               JCT-078          0.000000 100.000000 500.000000 0.500000 0.000000                 
COULEE_2-1082_PER RG               JCT-078          9.756000 0.000000 500.000000 0.500000 0.000000                 
COULEE_2-1084_IMP RG               JCT-045          0.000000 100.000000 500.000000 0.500000 0.000000                 
COULEE_2-1084_PER RG               JCT-045          7.838000 0.000000 500.000000 0.500000 0.000000                 
COULEE_2-1086_IMP RG               JCT-030          0.000000 100.000000 500.000000 0.500000 0.000000                 
COULEE_2-1086_PER RG               JCT-030          18.107000 0.000000 500.000000 0.500000 0.000000                 
COULEE_2-1088_IMP RG               JCT-057          0.000000 100.000000 500.000000 0.500000 0.000000                 
COULEE_2-1088_PER RG               JCT-057          17.029000 0.000000 500.000000 0.500000 0.000000                 
COULEE_2-1090_IMP RG               JCT-030          0.012000 100.000000 500.000000 0.500000 0.000000                 
COULEE_2-1090_PER RG               JCT-030          16.907000 0.000000 500.000000 0.500000 0.000000                 
COULEE_2-1092_IMP RG               JCT-055          0.000000 100.000000 500.000000 0.500000 0.000000                 
COULEE_2-1092_PER RG               JCT-055          9.133000 0.000000 500.000000 0.500000 0.000000                 
COULEE_2-1100_IMP RG               JCT-044          0.000000 100.000000 500.000000 0.500000 0.000000                 
COULEE_2-1100_PER RG               JCT-044          9.481000 0.000000 500.000000 0.500000 0.000000                 
COULEE_2-1102_IMP RG               JCT-053          0.000000 100.000000 500.000000 0.500000 0.000000                 
COULEE_2-1102_PER RG               JCT-053          6.855000 0.000000 500.000000 0.500000 0.000000                 
COULEE_2-1104_IMP RG               JCT-077          0.000000 100.000000 500.000000 0.500000 0.000000                 
COULEE_2-1104_PER RG               JCT-077          8.466000 0.000000 500.000000 0.500000 0.000000                 
COULEE_2-1106_IMP RG               JCT-081          0.000000 100.000000 500.000000 0.500000 0.000000                 
COULEE_2-1106_PER RG               JCT-081          22.352000 0.000000 500.000000 0.500000 0.000000                 
COULEE_2-1108_IMP RG               JCT-065          0.000000 100.000000 500.000000 0.500000 0.000000                 
COULEE_2-1108_PER RG               JCT-065          23.306000 0.000000 500.000000 0.500000 0.000000                 
COULEE_2-1110_IMP RG               JCT-078          0.000000 100.000000 500.000000 0.500000 0.000000                 
COULEE_2-1110_PER RG               JCT-078          7.984000 0.000000 500.000000 0.500000 0.000000                 
COULEE_2-1112_IMP RG               JCT-030          0.000000 100.000000 500.000000 0.500000 0.000000                 
COULEE_2-1112_PER RG               JCT-030          26.406000 0.000000 500.000000 0.500000 0.000000                 
COULEE_2-1114_IMP RG               JCT-028          0.000000 100.000000 500.000000 0.500000 0.000000                 
COULEE_2-1114_PER RG               JCT-028          9.635000 0.000000 500.000000 0.500000 0.000000                 
COULEE_2-1120_IMP RG               JCT-043          0.000000 100.000000 500.000000 0.500000 0.000000                 
COULEE_2-1120_PER RG               JCT-043          4.495000 0.000000 500.000000 0.500000 0.000000                 
COULEE_2-1124_IMP RG               JCT-115          0.000000 100.000000 500.000000 0.500000 0.000000                 
COULEE_2-1124_PER RG               JCT-115          16.442000 0.000000 500.000000 0.500000 0.000000                 
COULEE_2-1130_IMP RG               JCT-027          0.000000 100.000000 500.000000 0.500000 0.000000                 
COULEE_2-1130_PER RG               JCT-027          11.336000 0.000000 500.000000 0.500000 0.000000                 
COULEE_2-1132_IMP RG               JCT-026          0.000000 100.000000 500.000000 0.500000 0.000000                 
COULEE_2-1132_PER RG               JCT-026          7.633000 0.000000 500.000000 0.500000 0.000000                 
COULEE_2-1134_IMP RG               JCT-26           0.000000 100.000000 500.000000 0.500000 0.000000                 
COULEE_2-1134_PER RG               JCT-26           7.198000 0.000000 500.000000 0.500000 0.000000                 
COULEE_2-1136_IMP RG               JCT-080          0.000000 100.000000 500.000000 0.500000 0.000000                 
COULEE_2-1136_PER RG               JCT-080          18.790000 0.000000 500.000000 0.500000 0.000000                 
COULEE_2-1142_IMP RG               JCT-084          0.000000 100.000000 500.000000 0.500000 0.000000                 
COULEE_2-1142_PER RG               JCT-084          22.971000 0.000000 500.000000 0.500000 0.000000                 
COULEE_2-1144_IMP RG               JCT-035          0.000000 100.000000 500.000000 0.500000 0.000000                 
COULEE_2-1144_PER RG               JCT-035          7.515000 0.000000 500.000000 0.500000 0.000000                 
COULEE_2-1148_IMP RG               JCT-034          0.000000 100.000000 500.000000 0.500000 0.000000                 
COULEE_2-1148_PER RG               JCT-034          6.114000 0.000000 500.000000 0.500000 0.000000                 
COULEE_2-1152_IMP RG               JCT-22           0.000000 100.000000 500.000000 0.500000 0.000000                 
COULEE_2-1152_PER RG               JCT-22           9.581000 0.000000 500.000000 0.500000 0.000000                 
COULEE_2-1154_IMP RG               JCT-051          0.000000 100.000000 500.000000 0.500000 0.000000                 
COULEE_2-1154_PER RG               JCT-051          17.035000 0.000000 500.000000 0.500000 0.000000                 
COULEE_2-1158_IMP RG               JCT-041          0.000000 100.000000 500.000000 0.500000 0.000000                 
COULEE_2-1158_PER RG               JCT-041          6.409000 0.000000 500.000000 0.500000 0.000000                 
COULEE_2-1160_IMP RG               JCT-121          0.000000 100.000000 500.000000 0.500000 0.000000                 
COULEE_2-1160_PER RG               JCT-121          17.517000 0.000000 500.000000 0.500000 0.000000                 
COULEE_2-1162_IMP RG               JCT-24           0.000000 100.000000 500.000000 0.500000 0.000000                 
COULEE_2-1162_PER RG               JCT-24           6.008000 0.000000 500.000000 0.500000 0.000000                 
COULEE_2-1164_IMP RG               JCT-040          0.000000 100.000000 500.000000 0.500000 0.000000                 
COULEE_2-1164_PER RG               JCT-040          8.792000 0.000000 500.000000 0.500000 0.000000                 
COULEE_2-1176_IMP RG               JCT-119          0.000000 100.000000 500.000000 0.500000 0.000000                 
COULEE_2-1176_PER RG               JCT-119          9.433000 0.000000 500.000000 0.500000 0.000000                 
COULEE_2-1178_IMP RG               JCT-039          0.000000 100.000000 500.000000 0.500000 0.000000                 
COULEE_2-1178_PER RG               JCT-039          6.072000 0.000000 500.000000 0.500000 0.000000                 
COULEE_2-1182_IMP RG               JCT-112          0.000000 100.000000 500.000000 0.500000 0.000000                 
COULEE_2-1182_PER RG               JCT-112          17.802000 0.000000 500.000000 0.500000 0.000000                 
COULEE_2-1184_IMP RG               JCT-096          0.000000 100.000000 500.000000 0.500000 0.000000                 
COULEE_2-1184_PER RG               JCT-096          22.693000 0.000000 500.000000 0.500000 0.000000                 
COULEE_2-1204_IMP RG               JCT-089          0.000000 100.000000 500.000000 0.500000 0.000000                 
COULEE_2-1204_PER RG               JCT-089          7.873000 0.000000 500.000000 0.500000 0.000000                 
COULEE_2-1206_IMP RG               JCT-134          0.000000 100.000000 500.000000 0.500000 0.000000                 
COULEE_2-1206_PER RG               JCT-134          6.044000 0.000000 500.000000 0.500000 0.000000                 
COULEE_2-1216_IMP RG               JCT-118          0.000000 100.000000 500.000000 0.500000 0.000000                 
COULEE_2-1216_PER RG               JCT-118          10.997000 0.000000 500.000000 0.500000 0.000000                 
COULEE_2-1218_IMP RG               JCT-120          0.000000 100.000000 500.000000 0.500000 0.000000                 
COULEE_2-1218_PER RG               JCT-120          10.247000 0.000000 500.000000 0.500000 0.000000                 
COULEE_2-1220_IMP RG               JCT-085          0.000000 100.000000 500.000000 0.500000 0.000000                 
COULEE_2-1220_PER RG               JCT-085          9.150000 0.000000 500.000000 0.500000 0.000000                 
COULEE_2-1222_IMP RG               JCT-138          0.000000 100.000000 500.000000 0.500000 0.000000                 
COULEE_2-1222_PER RG               JCT-138          5.353000 0.000000 500.000000 0.500000 0.000000                 
COULEE_2-1224_IMP RG               JCT-091          0.000000 100.000000 500.000000 0.500000 0.000000                 
COULEE_2-1224_PER RG               JCT-091          9.131000 0.000000 500.000000 0.500000 0.000000                 
COULEE_2-1226_IMP RG               JCT-022          0.000000 100.000000 500.000000 0.500000 0.000000                 
COULEE_2-1226_PER RG               JCT-022          13.810000 0.000000 500.000000 0.500000 0.000000                 
COULEE_2-1228_IMP RG               JCT-097          0.000000 100.000000 500.000000 0.500000 0.000000                 
COULEE_2-1228_PER RG               JCT-097          15.472000 0.000000 500.000000 0.500000 0.000000                 
COULEE_2-1230_IMP RG               JCT-020          0.108000 100.000000 500.000000 0.500000 0.000000                 
COULEE_2-1230_PER RG               JCT-020          6.437000 0.000000 500.000000 0.500000 0.000000                 
COULEE_2-1232_IMP RG               JCT-131          0.000000 100.000000 500.000000 0.500000 0.000000                 
COULEE_2-1232_PER RG               JCT-131          8.595000 0.000000 500.000000 0.500000 0.000000                 
COULEE_2-1236_IMP RG               JCT-108          0.000000 100.000000 500.000000 0.500000 0.000000                 
COULEE_2-1236_PER RG               JCT-108          17.827000 0.000000 500.000000 0.500000 0.000000                 
COULEE_2-1238_IMP RG               JCT-110          0.000000 100.000000 500.000000 0.500000 0.000000                 
COULEE_2-1238_PER RG               JCT-110          9.499000 0.000000 500.000000 0.500000 0.000000                 
COULEE_2-1242_IMP RG               JCT-136          0.000000 100.000000 500.000000 0.500000 0.000000                 
COULEE_2-1242_PER RG               JCT-136          4.884000 0.000000 500.000000 0.500000 0.000000                 
COULEE_2-1244_IMP RG               JCT-139          0.000000 100.000000 500.000000 0.500000 0.000000                 
COULEE_2-1244_PER RG               JCT-139          7.200000 0.000000 500.000000 0.500000 0.000000                 
COULEE_2-1246_IMP RG               JCT-031          0.000000 100.000000 500.000000 0.500000 0.000000                 
COULEE_2-1246_PER RG               JCT-031          20.752000 0.000000 500.000000 0.500000 0.000000                 
COULEE_2-1248_IMP RG               JCT-122          0.000000 100.000000 500.000000 0.500000 0.000000                 
COULEE_2-1248_PER RG               JCT-122          11.331000 0.000000 500.000000 0.500000 0.000000                 
COULEE_2-1250_IMP RG               JCT-124          0.000000 100.000000 500.000000 0.500000 0.000000                 
COULEE_2-1250_PER RG               JCT-124          14.087000 0.000000 500.000000 0.500000 0.000000                 
COULEE_2-1254_IMP RG               JCT-133          0.000000 100.000000 500.000000 0.500000 0.000000                 
COULEE_2-1254_PER RG               JCT-133          17.022000 0.000000 500.000000 0.500000 0.000000                 
COULEE_2-1256_IMP RG               JCT-098          0.000000 100.000000 500.000000 0.500000 0.000000                 
COULEE_2-1256_PER RG               JCT-098          7.218000 0.000000 500.000000 0.500000 0.000000                 
COULEE_2-1258_IMP RG               JCT-106          0.000000 100.000000 500.000000 0.500000 0.000000                 
COULEE_2-1258_PER RG               JCT-106          16.541000 0.000000 500.000000 0.500000 0.000000                 
COULEE_2-1262_IMP RG               JCT-107          0.000000 100.000000 500.000000 0.500000 0.000000                 
COULEE_2-1262_PER RG               JCT-107          18.148000 0.000000 500.000000 0.500000 0.000000                 
COULEE_2-1264_IMP RG               JCT-100          0.000000 100.000000 500.000000 0.500000 0.000000                 
COULEE_2-1264_PER RG               JCT-100          12.683000 0.000000 500.000000 0.500000 0.000000                 
COULEE_2-1268_IMP RG               JCT-088          0.000000 100.000000 500.000000 0.500000 0.000000                 
COULEE_2-1268_PER RG               JCT-088          14.140000 0.000000 500.000000 0.500000 0.000000                 
COULEE_2-1270_IMP RG               JCT-137          0.000000 100.000000 500.000000 0.500000 0.000000                 
COULEE_2-1270_PER RG               JCT-137          15.714000 0.000000 500.000000 0.500000 0.000000                 
COULEE_2-1272_IMP RG               JCT-102          0.000000 100.000000 500.000000 0.500000 0.000000                 
COULEE_2-1272_PER RG               JCT-102          21.554000 0.000000 500.000000 0.500000 0.000000                 
COULEE_2-1274_IMP RG               JCT-140          0.000000 100.000000 500.000000 0.500000 0.000000                 
COULEE_2-1274_PER RG               JCT-140          18.161000 0.000000 500.000000 0.500000 0.000000                 
COULEE_2-1276_IMP RG               JCT-127          0.000000 100.000000 500.000000 0.500000 0.000000                 
COULEE_2-1276_PER RG               JCT-127          19.881000 0.000000 500.000000 0.500000 0.000000                 
COULEE_2-1278_IMP RG               JCT-141          0.000000 100.000000 500.000000 0.500000 0.000000                 
COULEE_2-1278_PER RG               JCT-141          13.610000 0.000000 500.000000 0.500000 0.000000                 
COULEE_2-1286_IMP RG               JCT-104          0.000000 100.000000 500.000000 0.500000 0.000000                 
COULEE_2-1286_PER RG               JCT-104          11.840000 0.000000 500.000000 0.500000 0.000000                 
COULEE_2-1288_IMP RG               JCT-126          0.000000 100.000000 500.000000 0.500000 0.000000                 
COULEE_2-1288_PER RG               JCT-126          16.293000 0.000000 500.000000 0.500000 0.000000                 
COULEE_2-1290_IMP RG               JCT-128          0.000000 100.000000 500.000000 0.500000 0.000000                 
COULEE_2-1290_PER RG               JCT-128          23.834000 0.000000 500.000000 0.500000 0.000000                 
COULEE_2-1292_IMP RG               JCT-129          0.000000 100.000000 500.000000 0.500000 0.000000                 
COULEE_2-1292_PER RG               JCT-129          13.225000 0.000000 500.000000 0.500000 0.000000                 
COULEE_2-1294_IMP RG               JCT-130          0.000000 100.000000 500.000000 0.500000 0.000000                 
COULEE_2-1294_PER RG               JCT-130          21.334000 0.000000 500.000000 0.500000 0.000000                 
COULEE_3-1012_IMP RG               JCT-149          0.000000 100.000000 500.000000 0.500000 0.000000                 
COULEE_3-1012_PER RG               JCT-149          27.918000 0.000000 500.000000 0.500000 0.000000                 
COULEE_3-1016_IMP RG               JCT-149          0.000000 100.000000 500.000000 0.500000 0.000000                 
COULEE_3-1016_PER RG               JCT-149          39.672000 0.000000 500.000000 0.500000 0.000000                 
COULEE_3-1018_IMP RG               JCT-205          0.000000 100.000000 500.000000 0.500000 0.000000                 
COULEE_3-1018_PER RG               JCT-205          23.896000 0.000000 500.000000 0.500000 0.000000                 
COULEE_3-1022_IMP RG               JCT-202          0.000000 100.000000 500.000000 0.500000 0.000000                 
COULEE_3-1022_PER RG               JCT-202          10.245000 0.000000 500.000000 0.500000 0.000000                 
COULEE_3-1024_IMP RG               JCT-204          0.000000 100.000000 500.000000 0.500000 0.000000                 
COULEE_3-1024_PER RG               JCT-204          10.340000 0.000000 500.000000 0.500000 0.000000                 
COULEE_3-1026_IMP RG               JCT-20           0.000000 100.000000 500.000000 0.500000 0.000000                 
COULEE_3-1026_PER RG               JCT-20           6.908000 0.000000 500.000000 0.500000 0.000000                 
COULEE_3-1028_IMP RG               JCT-174          0.000000 100.000000 500.000000 0.500000 0.000000                 
COULEE_3-1028_PER RG               JCT-174          7.550000 0.000000 500.000000 0.500000 0.000000                 
COULEE_3-1034_IMP RG               JCT-171          0.000000 100.000000 500.000000 0.500000 0.000000                 
COULEE_3-1034_PER RG               JCT-171          9.728000 0.000000 500.000000 0.500000 0.000000                 
COULEE_3-1036_IMP RG               JCT-159          0.000000 100.000000 500.000000 0.500000 0.000000                 
COULEE_3-1036_PER RG               JCT-159          11.440000 0.000000 500.000000 0.500000 0.000000                 
COULEE_3-1040_IMP RG               JCT-173          0.000000 100.000000 500.000000 0.500000 0.000000                 
COULEE_3-1040_PER RG               JCT-173          8.784000 0.000000 500.000000 0.500000 0.000000                 
COULEE_3-1044_IMP RG               JCT-181          0.000000 100.000000 500.000000 0.500000 0.000000                 
COULEE_3-1044_PER RG               JCT-181          4.901000 0.000000 500.000000 0.500000 0.000000                 
COULEE_3-1048_IMP RG               JCT-152          0.000000 100.000000 500.000000 0.500000 0.000000                 