[TITLE]
;;Project Title/Notes

[OPTIONS]
;;Option             Value
FLOW_UNITS           MGD
INFILTRATION         HORTON
FLOW_ROUTING         DYNWAVE
LINK_OFFSETS         ELEVATION
MIN_SLOPE            0
ALLOW_PONDING        YES
SKIP_STEADY_STATE    NO

START_DATE           05/20/2015
START_TIME           00:00:00
REPORT_START_DATE    05/20/2015
REPORT_START_TIME    00:00:00
END_DATE             05/24/2015
END_TIME             23:55:00
SWEEP_START          01/01
SWEEP_END            12/31
DRY_DAYS             0
REPORT_STEP          00:05:00
WET_STEP             00:05:00
DRY_STEP             01:00:00
ROUTING_STEP         0:00:10 

INERTIAL_DAMPING     PARTIAL
NORMAL_FLOW_LIMITED  BOTH
FORCE_MAIN_EQUATION  H-W
VARIABLE_STEP        0.75
LENGTHENING_STEP     20
MIN_SURFAREA         12.557
MAX_TRIALS           8
HEAD_TOLERANCE       0.005
SYS_FLOW_TOL         5
LAT_FLOW_TOL         5
MINIMUM_STEP         0.5
THREADS              1

[FILES]
;;Interfacing Files
USE INFLOWS "F:\2017\My2016\InflowsInterface.txt"

[EVAPORATION]
;;Data Source    Parameters
;;-------------- ----------------
CONSTANT         0.0
DRY_ONLY         NO

[JUNCTIONS]
;;Name           Elevation  MaxDepth   InitDepth  SurDepth   Aponded   
;;-------------- ---------- ---------- ---------- ---------- ----------
018-0001         641.423    19.200     0.000      0.000      41244.194 
018-0002         646.490    13.252     0.000      0.000      5932.360  
018-0003         647.959    12.841     0.000      0.000      26444.016 
018-0004         654.374    12.372     0.000      0.000      81285.401 
018-0772         659.959    10.600     0.000      0.000      182460.527
018-0009         642.000    18.712     0.000      0.000      488667.923
018-0018         642.176    19.000     0.000      0.000      92919.975 
018-0019         643.461    17.500     0.000      0.000      228000.179
018-0020         644.613    14.500     0.000      0.000      141284.544
018-0021         646.510    16.490     0.000      0.000      24856.882 
018-0022         648.100    14.900     0.000      0.000      1571884.972
018-0113         652.537    16.500     0.000      0.000      275075.765
018-0119         653.000    17.567     0.000      0.000      50622.416 
018-0120         653.500    12.249     0.000      0.000      81331.825 
018-0121         654.668    17.500     0.000      0.000      65029.678 
018-0122         654.800    17.900     0.000      0.000      1139620.399
018-0143         655.570    14.630     0.000      0.000      24619.927 
018-0144         658.920    11.580     0.000      0.000      10760.618 
018-0145         662.190    8.810      0.000      0.000      37558.390 
018-0146         663.000    16.132     0.000      0.000      16852.471 
018-0147         663.520    10.280     0.000      0.000      15494.369 
018-0148         664.840    9.160      0.000      0.000      23375.492 
018-0149         665.600    8.400      0.000      0.000      23971.874 
018-0150         660.920    14.300     0.000      0.000      29895.195 
018-0151         662.743    9.000      0.000      0.000      28866.058 
018-0152         662.973    11.532     0.000      0.000      87831.601 
018-0154         663.027    12.000     0.000      0.000      31164.061 
018-0155         663.666    7.500      0.000      0.000      96007.833 
018-0158         664.761    13.000     0.000      0.000      89886.783 
018-0159         666.716    12.000     0.000      0.000      398202.152
018-0167         657.580    9.092      0.000      0.000      165915.104
018-0270         695.286    5.700      0.000      0.000      4954.897  
018-0271         700.186    12.500     0.000      0.000      3721888.234
018-0272         699.477    12.500     0.000      0.000      24749.129 
018-0273         706.687    7.500      0.000      0.000      108294.121
018-0274         707.472    7.500      0.000      0.000      86449.948 
018-0275         709.217    11.000     0.000      0.000      74781.178 
018-0276         715.260    16.000     0.000      0.000      23322.637 
018-0282         723.060    11.620     0.000      0.000      45265.601 
018-0283         723.815    10.000     0.000      0.000      50340.933 
018-0284         728.710    15.000     0.000      0.000      432735.465
018-0288         731.845    16.000     0.000      0.000      228091.822
018-0290         732.347    17.942     0.000      0.000      117212.172
018-0291         732.940    18.734     0.000      0.000      46462.224 
018-0292         733.358    21.891     0.000      0.000      64575.554 
018-0293         733.521    22.700     0.000      0.000      46382.820 
018-0298         746.189    12.400     0.000      0.000      7919886.432
018-0469         687.000    11.725     0.000      0.000      10928.566 
018-0470         687.787    10.300     0.000      0.000      24112.665 
018-0471         689.561    10.700     0.000      0.000      16157.952 
018-0472         690.325    10.500     0.000      0.000      2613.818  
018-0473         690.491    10.910     0.000      0.000      9611.338  
018-0474         690.834    13.104     0.000      0.000      11125.278 
018-0475         692.084    15.611     0.000      0.000      14869.774 
018-0476         692.375    18.631     0.000      0.000      13687.333 
018-0477         693.065    16.326     0.000      0.000      7137.119  
018-0478         693.361    9.237      0.000      0.000      11654.973 
018-0479         693.906    4.494      0.000      0.000      10852.519 
018-0480         694.305    13.315     0.000      0.000      28760.731 
018-0573         644.300    8.700      0.000      0.000      7367.078  
018-0574         646.196    13.004     0.000      0.000      9301.240  
018-0574A        640.000    19.053     0.000      3277.559   0.000     
018-0574B        640.000    13.000     0.000      3277.559   0.000     
018-0574C        640.000    19.204     0.000      3277.559   0.000     
018-0574D        640.000    13.000     0.000      3277.559   0.000     
018-0575         643.822    9.178      0.000      0.000      18275.741 
018-0595         736.001    21.851     0.000      0.000      62630.311 
018-0596         737.158    21.666     0.000      0.000      55778.155 
018-0597         738.909    19.600     0.000      0.000      77971.978 
018-0598         739.533    13.000     0.000      0.000      89960.290 
018-0599         744.055    15.700     0.000      0.000      22385.183 
018-0600         739.200    8.726      0.000      0.000      25158.376 
018-0604         722.690    16.310     0.000      0.000      68118.962 
018-0605         720.200    8.550      0.000      0.000      70717.617 
018-0606         719.800    6.100      0.000      0.000      59041.878 
018-0607         717.690    5.310      0.000      0.000      95634.298 
018-0608         716.150    19.350     0.000      0.000      493311.381
018-0609         715.720    15.260     0.000      0.000      27836.792 
018-0616         647.670    14.716     0.000      0.000      26815.582 
018-0617         646.450    10.750     0.000      0.000      25872.257 
018-0618         646.120    11.880     0.000      0.000      16119.549 
018-0619         646.140    11.060     0.000      0.000      2344.731  
018-0620         646.160    11.740     0.000      0.000      20403.439 
018-0621         646.570    14.180     0.000      0.000      4107915.049
018-0645         718.007    5.500      0.000      0.000      97769.816 
018-0670         676.841    13.500     0.000      0.000      277642.688
018-0671         685.314    10.237     0.000      0.000      145888.768
018-0672         681.096    11.100     0.000      0.000      325723.604
018-0673         682.790    11.400     0.000      0.000      339725.241
018-0674         685.713    11.000     0.000      0.000      325848.557
018-0675         689.458    10.800     0.000      0.000      2151076.695
018-0682         695.623    15.538     0.000      0.000      14703.997 
018-0683         697.003    14.200     0.000      0.000      20188.970 
018-0722         744.721    14.400     0.000      0.000      163804.291
018-0733         640.180    23.930     0.000      0.000      70718.754 
018-0734         642.010    23.790     0.000      0.000      51992.497 
018-0735         645.510    22.970     0.000      0.000      30384.311 
018-0736         646.120    21.010     0.000      0.000      18400.791 
018-0737         646.590    20.920     0.000      0.000      35738.194 
018-0738         647.140    24.970     0.000      0.000      14782.031 
018-0739         647.990    28.060     0.000      0.000      23793.032 
018-0740         648.430    27.590     0.000      0.000      13282.548 
018-0741         648.770    24.270     0.000      0.000      13387.397 
018-0742         649.310    18.480     0.000      0.000      5888.470  
018-0743         649.510    16.970     0.000      0.000      16707.852 
018-0745         650.080    16.910     0.000      0.000      8179.879  
018-0746         650.620    17.840     0.000      0.000      18962.514 
018-0747         651.590    16.980     0.000      0.000      11784.682 
018-0748         652.100    19.350     0.000      0.000      8882.960  
018-0749         652.930    22.150     0.000      0.000      4282.859  
018-0750         653.060    22.010     0.000      0.000      5417.977  
018-0751         653.790    17.460     0.000      0.000      16254.088 
018-0752         654.280    18.880     0.000      0.000      7381.546  
018-0753         656.000    19.210     0.000      0.000      160198.886
018-0754         655.700    11.270     0.000      0.000      17648.063 
018-0755         656.040    11.580     0.000      0.000      16358.736 
018-0756         656.360    11.140     0.000      0.000      3131885.538
018-0757         656.770    10.730     0.000      0.000      174335.522
018-0763         649.240    11.810     0.000      0.000      57869.861 
018-0764         653.420    8.624      0.000      0.000      92198.113 
019-0013         655.791    9.000      0.000      0.000      7604278.301
019-0046         659.976    11.157     0.000      0.000      18110.894 
019-0047         660.500    11.759     0.000      0.000      35074.368 
019-0049         661.000    14.805     0.000      0.000      141827.564
019-0053         661.950    12.000     0.000      0.000      33561.374 
019-0054         663.900    12.000     0.000      0.000      260444.766
019-0058         664.417    12.200     0.000      0.000      31243.300 
019-0060         666.803    12.000     0.000      0.000      304734.479
019-0064         671.450    12.000     0.000      0.000      60304.531 
019-0065         672.226    11.500     0.000      0.000      41689.222 
019-0092         685.470    12.000     0.000      0.000      51655.041 
019-0348         652.420    10.110     0.000      0.000      328064.016
019-0349         652.854    12.035     0.000      0.000      219013.985
019-0350         652.997    12.271     0.000      0.000      17871.595 
019-0351         653.473    13.526     0.000      0.000      103885.080
019-0352         655.225    11.903     0.000      0.000      159506.763
019-0353         655.986    15.180     0.000      0.000      37857.644 
019-0354         662.986    12.422     0.000      0.000      40692.571 
019-0355         665.370    9.112      0.000      0.000      777788.576
019-0380         672.700    12.243     0.000      0.000      16924.483 
019-0381         676.001    3.999      0.000      0.000      338331.083
019-0382         676.280    9.142      0.000      0.000      10539.193 
019-0383         678.258    8.160      0.000      0.000      2431234.320
019-0384         678.705    8.688      0.000      0.000      22977.722 
019-0385         679.202    5.497      0.000      0.000      24809.126 
019-0386         679.897    10.504     0.000      0.000      15939.483 
019-0387         680.795    9.197      0.000      0.000      119488.876
019-0388         681.102    2.233      0.000      0.000      15115.207 
019-0389         681.534    9.269      0.000      0.000      21608.273 
019-0390         682.330    9.857      0.000      0.000      14371.606 
019-0391         683.037    8.634      0.000      0.000      26671.106 
019-0392         684.021    12.026     0.000      0.000      21802.722 
019-0393         655.023    11.354     0.000      0.000      13116.299 
019-0394         656.191    10.529     0.000      0.000      27805.610 
019-0395         657.692    10.994     0.000      0.000      13078.655 
019-0396         658.118    10.444     0.000      0.000      21979.167 
019-0397         659.282    10.995     0.000      0.000      16579.954 
031-0102         694.491    14.354     0.000      0.000      41735.030 
031-0103         695.269    8.200      0.000      0.000      66549.262 
031-0104         698.959    8.900      0.000      0.000      31662.864 
031-0105         699.003    8.030      0.000      0.000      1657016.470
031-0106         701.468    7.800      0.000      0.000      9618249.545
031-0108         705.356    8.700      0.000      0.000      56146.895 
031-0109         708.140    4.600      0.000      0.000      24489.024 
031-0110         709.501    5.000      0.000      0.000      50926.500 
031-0111         709.909    9.135      0.000      0.000      55536.073 
031-0112         710.249    7.498      0.000      0.000      28697.861 
031-0113         711.485    8.000      0.000      0.000      21422.661 
031-0114         712.026    10.045     0.000      0.000      47242.640 
031-0115         714.596    8.900      0.000      0.000      45412.196 
031-0116         716.942    7.800      0.000      0.000      57880.346 
031-0117         717.377    7.400      0.000      0.000      54021.272 
031-0118         717.751    8.300      0.000      0.000      171425.504
031-0122         718.138    9.600      0.000      0.000      16803.656 
031-0124         721.838    7.810      0.000      0.000      7748743.283
032-0001         670.470    11.480     0.000      0.000      47117.651 
032-0002         672.720    11.963     0.000      0.000      44026.309 
032-0003         673.370    12.736     0.000      0.000      331723.466
032-0008         674.830    9.948      0.000      0.000      17366.651 
032-0009         676.000    11.855     0.000      0.000      46590.596 
032-0010         677.540    11.275     0.000      0.000      306776.288
032-0015         678.010    9.672      0.000      0.000      61177.670 
032-0016         680.560    12.405     0.000      0.000      302035.839
032-0021         680.447    13.244     0.000      0.000      29129.124 
032-0022         680.278    12.674     0.000      0.000      28713.696 
032-0023         679.131    17.200     0.000      0.000      19961.614 
032-0024         678.630    11.987     0.000      0.000      36315.526 
032-0025         678.090    7.855      0.000      0.000      27207.667 
032-0026         677.000    7.323      0.000      0.000      24463.001 
032-0027         681.900    9.271      0.000      0.000      61602.090 
032-0029         689.190    5.594      0.000      0.000      87387.103 
032-0030         691.076    11.400     0.000      0.000      636131.865
032-0031         692.542    7.000      0.000      0.000      51462.691 
032-0033         695.340    1.639      0.000      0.000      35850.224 
032-0037         685.690    5.761      0.000      0.000      3908052.960
032-0102         676.500    8.665      0.000      0.000      14664.775 
032-0103         684.760    7.108      0.000      0.000      178038.229
032-0106         681.482    8.519      0.000      0.000      921479.088
032-0125         683.458    13.453     0.000      0.000      92590.605 
032-0127         683.590    8.707      0.000      0.000      16184.095 
032-0128         684.718    8.100      0.000      0.000      1570055.455
032-0145         686.769    8.179      0.000      0.000      866067.760
032-0152         687.860    8.140      0.000      0.000      20630.641 
032-0153         687.890    8.360      0.000      0.000      66081.691 
032-0154         688.310    10.690     0.000      0.000      69112.619 
032-0155         688.590    10.610     0.000      0.000      7448518.326
032-0156         691.543    10.000     0.000      0.000      4320835.372
032-0200         695.793    12.749     0.000      0.000      5006.568  
032-0201         696.060    13.762     0.000      0.000      29410.588 
032-0202         699.630    19.026     0.000      0.000      72993.779 
032-0203         706.119    11.000     0.000      0.000      32072.158 
032-0308         679.030    12.910     0.000      0.000      47558.599 
032-0316         685.400    8.033      0.000      0.000      42698.257 
032-0331         693.750    14.500     0.000      0.000      160024.618
032-0343         670.890    10.740     0.000      0.000      26258.737 
032-0344         676.010    7.340      0.000      0.000      22415.305 
033-0001         647.150    23.000     0.000      0.000      542305.088
033-0012         652.574    17.000     0.000      0.000      42512.504 
033-0013         653.876    28.268     0.000      0.000      42365.856 
033-0014         661.120    12.159     0.000      0.000      46685.247 
033-0015         661.832    12.014     0.000      0.000      223132.408
033-0018         662.860    10.000     0.000      0.000      2241868.280
033-0021         664.033    10.000     0.000      0.000      33728.743 
033-0062         652.678    16.701     0.000      0.000      113774.334
033-0063         653.518    16.824     0.000      0.000      80619.493 
033-0064         654.020    16.618     0.000      0.000      64677.440 
033-0065         655.944    16.000     0.000      0.000      58515.900 
033-0066         657.220    14.948     0.000      0.000      300308.238
033-0067         658.786    11.000     0.000      0.000      121456.037
033-0070         659.600    13.568     0.000      0.000      23027.616 
033-0071         660.340    14.649     0.000      0.000      218696.038
033-0075         668.399    10.000     0.000      0.000      126654.757
033-0077         681.192    1.423      0.000      0.000      375777.303
033-0085         701.600    11.332     0.000      0.000      174835.833
033-0087         710.000    10.705     0.000      0.000      71653.012 
033-0088         710.760    10.159     0.000      0.000      97955.897 
033-0090         714.280    5.603      0.000      0.000      60922.773 
033-0091         717.680    13.163     0.000      0.000      53256.605 
033-0096         676.255    22.673     0.000      0.000      19517.162 
033-0100         662.599    20.492     0.000      0.000      25206.764 
033-0101         661.188    15.000     0.000      0.000      38335.512 
033-0104         662.561    12.900     0.000      0.000      95105.555 
033-0105         665.755    10.700     0.000      0.000      59937.023 
033-0106         667.203    11.700     0.000      0.000      308409.411
033-0107         674.554    9.700      0.000      0.000      751656.652
033-0108         681.885    10.400     0.000      0.000      112027.095
033-0109         686.257    12.700     0.000      0.000      68906.121 
033-0110         690.029    10.000     0.000      0.000      38910.632 
033-0111         692.224    10.800     0.000      0.000      484205.720
033-0112         676.320    5.180      0.000      0.000      29643.409 
033-0113         676.840    7.860      0.000      0.000      226998.400
033-0116         677.780    9.820      0.000      0.000      257873.729
033-0121         679.010    9.090      0.000      0.000      48982.269 
033-0122         684.800    8.973      0.000      0.000      181907.173
033-0125         692.180    4.649      0.000      0.000      45637.170 
033-0127         696.210    7.347      0.000      0.000      201815.450
033-0130         699.700    6.611      0.000      0.000      146684.541
033-0132         708.700    8.570      0.000      0.000      226078.585
033-0135         714.230    7.827      0.000      0.000      129658.312
033-0137         682.190    6.601      0.000      0.000      46056.025 
033-0138         663.874    15.935     0.000      0.000      98755.583 
033-0139         663.918    15.882     0.000      0.000      30514.150 
033-0145         668.430    13.870     0.000      0.000      160198.094
033-0151         675.270    9.469      0.000      0.000      13202.772 
033-0152         676.036    10.200     0.000      0.000      325060.069
033-0169         661.860    10.270     0.000      0.000      27949.556 
033-0170         664.720    10.191     0.000      0.000      22309.694 
033-0171         668.200    14.545     0.000      0.000      76970.593 
033-0172         673.650    12.000     0.000      0.000      94353.258 
033-0173         674.271    14.087     0.000      0.000      113302.246
033-0174         677.676    12.000     0.000      0.000      74412.853 
033-0175         678.948    12.000     0.000      0.000      794960.139
033-0211         678.982    6.200      0.000      0.000      10862.064 
033-0212         679.516    6.200      0.000      0.000      20186.876 
033-0213         679.568    6.800      0.000      0.000      18575.794 
033-0220         676.810    11.593     0.000      0.000      21829.252 
033-0221         677.630    11.480     0.000      0.000      27637.760 
033-0222         678.440    11.348     0.000      0.000      43776.048 
033-0223         680.028    9.700      0.000      0.000      278173.423
033-0227         681.375    12.500     0.000      0.000      662564.258
033-0228         677.012    12.200     0.000      0.000      724759.506
033-0241         680.650    6.900      0.000      0.000      33597.862 
033-0242         682.672    12.800     0.000      0.000      7557.360  
033-0243         683.019    8.600      0.000      0.000      57591.388 
033-0244         683.371    12.793     0.000      0.000      155023.032
033-0246         684.372    13.368     0.000      0.000      40847.359 
033-0247         684.592    13.400     0.000      0.000      55331.221 
033-0248         687.999    14.300     0.000      0.000      15831.086 
033-0249         689.109    13.300     0.000      0.000      23254.080 
033-0250         693.995    13.600     0.000      0.000      16633.428 
033-0251         694.324    14.500     0.000      0.000      9364.824  
033-0252         694.417    15.861     0.000      0.000      13595.495 
033-0253         694.865    10.913     0.000      0.000      349542.526
033-0260         681.268    10.500     0.000      0.000      56940.110 
033-0264         680.514    11.814     0.000      0.000      72060.539 
033-0265         678.161    13.000     0.000      0.000      67518.896 
033-0269         695.313    9.884      0.000      0.000      16938.847 
033-0270         696.076    11.300     0.000      0.000      36652.847 
033-0271         696.436    10.426     0.000      0.000      37493.722 
033-0272         699.029    11.957     0.000      0.000      63221.070 
033-0273         701.455    15.325     0.000      0.000      47674.915 
033-0274         703.880    8.900      0.000      0.000      24279.425 
033-0275         707.006    9.400      0.000      0.000      33500.012 
033-0276         716.721    6.670      0.000      0.000      57108.244 
033-0282         684.520    4.800      0.000      0.000      34619.359 
033-0283         684.928    6.500      0.000      0.000      42722.940 
033-0284         686.084    9.800      0.000      0.000      45631.252 
033-0285         688.978    9.200      0.000      0.000      33578.244 
033-0286         689.138    9.600      0.000      0.000      39718.184 
033-0287         690.782    11.400     0.000      0.000      60590.579 
033-0288         691.579    9.900      0.000      0.000      48225.123 
033-0289         694.969    10.600     0.000      0.000      408541.221
033-0290         697.721    9.900      0.000      0.000      31998.025 
033-0291         699.557    7.100      0.000      0.000      36652.864 
033-0292         700.300    16.928     0.000      0.000      64869.714 
033-0293         715.013    9.400      0.000      0.000      30500.244 
033-0309         693.504    13.500     0.000      0.000      142397.262
033-0311         697.082    13.300     0.000      0.000      452667.930
033-0315         699.394    12.400     0.000      0.000      214386.340
033-0316         702.648    10.700     0.000      0.000      404460.782
033-0322         705.215    8.800      0.000      0.000      446585.746
033-0327         707.589    11.000     0.000      0.000      3631569.257
033-0386         683.039    12.200     0.000      0.000      92958.032 
033-0387         684.182    9.700      0.000      0.000      455992.627
033-0395         688.662    8.200      0.000      0.000      48541.388 
033-0400         688.856    7.800      0.000      0.000      31881.193 
033-0401         689.633    8.300      0.000      0.000      41980.087 
033-0402         689.711    11.500     0.000      0.000      57167.820 
033-0403         691.636    8.800      0.000      0.000      391473.527
033-0409         694.693    7.693      0.000      0.000      268187.751
033-0420         720.343    9.100      0.000      0.000      21037.030 
033-0421         722.250    7.259      0.000      0.000      37858.366 
033-0422         728.560    6.978      0.000      0.000      66661.796 
033-0425         705.354    9.590      0.000      0.000      36517.726 
033-0426         707.158    11.908     0.000      0.000      28551.458 
033-0427         708.886    8.815      0.000      0.000      37690.391 
033-0428         709.419    8.400      0.000      0.000      327411.597
033-0429         715.644    8.800      0.000      0.000      28608.375 
033-0449         696.190    11.105     0.000      0.000      155794.065
033-0450         696.750    12.112     0.000      0.000      3635.000  
033-0451         696.800    12.985     0.000      0.000      8602.405  
033-0452         699.430    10.981     0.000      0.000      50520.248 
033-0453         702.460    10.613     0.000      0.000      270121.112
033-0454         702.920    9.878      0.000      0.000      5114.240  
033-0460         703.500    8.310      0.000      0.000      914318.766
033-0461         703.870    11.814     0.000      0.000      16754.022 
033-0462         705.200    10.300     0.000      0.000      16370.185 
033-0463         709.654    9.800      0.000      0.000      913680.535
033-0517         709.730    9.500      0.000      0.000      163151.038
033-0520         711.492    10.500     0.000      0.000      1848556.878
033-0553         677.569    9.400      0.000      0.000      22312.171 
033-0554         696.578    10.786     0.000      0.000      181792.349
033-0557         703.994    12.138     0.000      0.000      46541.630 
033-0561         670.405    9.692      0.000      0.000      64413.976 
033-0569         726.168    19.100     0.000      0.000      158357.209
033-0574         707.060    9.940      0.000      0.000      20522.956 
033-0575         706.950    9.950      0.000      0.000      32755.145 
033-0576         705.800    10.200     0.000      0.000      8153.480  
033-0582         677.149    9.200      0.000      0.000      84941.026 
033-0587         705.065    9.710      0.000      0.000      6945.832  
033-0589         728.460    6.402      0.000      0.000      35189.208 
033-0594         684.630    7.729      0.000      0.000      30234.572 
033-0604         665.911    10.000     0.000      0.000      52572.103 
033-0606         662.643    19.534     0.000      0.000      69970.765 
033-0607         663.081    36.333     0.000      0.000      86217.568 
033-0608         663.372    34.876     0.000      0.000      18040.948 
033-0609         688.000    13.410     0.000      0.000      38365.277 
033-0610         690.430    11.228     0.000      0.000      81595.989 
033-0611         696.110    5.900      0.000      0.000      125910.950
033-0615         679.676    7.655      0.000      0.000      19312.832 
033-0617         682.510    6.057      0.000      0.000      40264.810 
033-0621         697.500    11.608     0.000      0.000      30910.487 
033-0628         716.455    14.097     0.000      0.000      89521.139 
033-0629         716.159    9.700      0.000      0.000      15159.716 
033-0643         659.290    24.655     0.000      0.000      65025.476 
033-0644         691.087    10.800     0.000      0.000      216497.330
033-0645         690.718    11.036     0.000      0.000      20705.589 
033-0646         690.625    11.748     0.000      0.000      16754.902 
033-0647         664.340    12.460     0.000      0.000      749939.579
033-0648         665.550    14.500     0.000      0.000      76706.379 
033-0649         666.000    11.430     0.000      0.000      35235.939 
033-0650         671.480    4.430      0.000      0.000      27400.718 
033-0651         671.750    7.060      0.000      0.000      46550.443 
033-0652         672.840    11.421     0.000      0.000      7963.242  
033-0653         672.020    13.530     0.000      0.000      99638.069 
033-0654         672.640    8.930      0.000      0.000      54484.183 
033-0655         672.780    11.340     0.000      0.000      16811.287 
033-0656         675.820    8.180      0.000      0.000      27840.008 
033-0661         664.200    13.342     0.000      0.000      18449.350 
034-0001         633.848    4.600      0.000      0.000      53801.052 
034-0002         635.371    5.800      0.000      0.000      38329.780 
034-0010         634.050    5.781      0.000      0.000      55278.862 
034-0011         634.239    5.300      0.000      0.000      10964.529 
034-0035         639.276    8.700      0.000      0.000      24026.334 
034-0040         634.749    7.270      0.000      0.000      19263.254 
034-0041         634.849    5.660      0.000      0.000      9139.112  
034-0042         634.869    6.000      0.000      0.000      1155.706  
034-0043         635.059    9.800      0.000      0.000      166033.490