[TITLE]
;;Project Title/Notes

[OPTIONS]
;;Option             Value
FLOW_UNITS           LPS
INFILTRATION         HORTON
FLOW_ROUTING         DYNWAVE
LINK_OFFSETS         DEPTH
MIN_SLOPE            0
ALLOW_PONDING        NO
SKIP_STEADY_STATE    NO

IGNORE_RAINFALL      YES
IGNORE_SNOWMELT      YES
IGNORE_GROUNDWATER   YES
IGNORE_QUALITY       YES
START_DATE           09/26/2018
START_TIME           00:00:00
REPORT_START_DATE    09/26/2018
REPORT_START_TIME    00:00:00
END_DATE             09/27/2018
END_TIME             00:00:00
SWEEP_START          01/01
SWEEP_END            01/02
DRY_DAYS             5.000000
REPORT_STEP          00:01:00
WET_STEP             00:05:00
DRY_STEP             00:05:00
ROUTING_STEP         0:00:01 

INERTIAL_DAMPING     NONE
NORMAL_FLOW_LIMITED  BOTH
FORCE_MAIN_EQUATION  D-W
VARIABLE_STEP        0.50
LENGTHENING_STEP     1
MIN_SURFAREA         1.167
MAX_TRIALS           8
HEAD_TOLERANCE       0.000010
SYS_FLOW_TOL         5
LAT_FLOW_TOL         5
MINIMUM_STEP         0
THREADS              1

[EVAPORATION]
;;Data Source    Parameters
;;-------------- ----------------
CONSTANT         0.0
DRY_ONLY         NO

[JUNCTIONS]
;;Name           Elevation  MaxDepth   InitDepth  SurDepth   Aponded   
;;-------------- ---------- ---------- ---------- ---------- ----------
; Manhole
60077            23.916000  2.500000   0.000000   0.000000   0.000000  
; Manhole
60078            23.357000  3.100000   0.000000   0.000000   0.000000  
; Manhole
60079            26.094000  0.700000   0.000000   0.000000   0.000000  
; Manhole
60080            25.048000  1.500000   0.000000   0.000000   0.000000  
; Manhole
60081            24.768000  2.000000   0.000000   0.000000   0.000000  
; Manhole
60082            24.456000  2.360000   0.000000   0.000000   0.000000  
; Manhole
60083            23.101000  4.330000   0.000000   0.000000   0.000000  
; Manhole
60084            22.953000  4.330000   0.000000   0.000000   0.000000  
; Manhole
60085            27.925000  1.100000   0.000000   0.000000   0.000000  
; Manhole
60086            26.510000  2.700000   0.000000   0.000000   0.000000  
; Manhole
60087            27.408000  2.200000   0.000000   0.000000   0.000000  
; Manhole
60088            27.817000  2.000000   0.000000   0.000000   0.000000  
; Manhole
60089            28.916000  0.900000   0.000000   0.000000   0.000000  
; Manhole
60090            30.815000  0.700000   0.000000   0.000000   0.000000  
; Manhole
60091            31.017000  1.990000   0.000000   0.000000   0.000000  
; Manhole
60092            33.596000  0.650000   0.000000   0.000000   0.000000  
; Manhole
60093            36.167000  0.800000   0.000000   0.000000   0.000000  
; Manhole
60094            34.126000  0.490000   0.000000   0.000000   0.000000  
; Manhole
60095            33.816000  2.727000   0.000000   0.000000   0.000000  
; Manhole
60096            32.440000  2.800000   0.000000   0.000000   0.000000  
; Manhole
60097            32.226000  3.000000   0.000000   0.000000   0.000000  
; Manhole
60098            35.045000  1.800000   0.000000   0.000000   0.000000  
; Manhole
60099            36.669000  2.000000   0.000000   0.000000   0.000000  
; Manhole
60100            31.758000  2.900000   0.000000   0.000000   0.000000  
; Manhole
60101            29.968000  1.800000   0.000000   0.000000   0.000000  
; Manhole
60102            29.704000  1.800000   0.000000   0.000000   0.000000  
; Manhole
60103            33.408000  0.900000   0.000000   0.000000   0.000000  
; Manhole
60104            36.120000  0.880000   0.000000   0.000000   0.000000  
; Manhole
60105            28.485000  1.050000   0.000000   0.000000   0.000000  
; Manhole
60106            40.605000  0.500000   0.000000   0.000000   0.000000  
; Manhole
60107            39.818000  0.600000   0.000000   0.000000   0.000000  
; Manhole
60108            38.168000  1.100000   0.000000   0.000000   0.000000  
; Manhole
60109            29.973000  2.900000   0.000000   0.000000   0.000000  
; Manhole
60110            25.770000  1.500000   0.000000   0.000000   0.000000  
; Manhole
60111            31.417000  1.600000   0.000000   0.000000   0.000000  
; Manhole
60112            27.393000  3.110000   0.000000   0.000000   0.000000  
; Manhole
60113            27.060000  2.018000   0.000000   0.000000   0.000000  
; Manhole
60114            34.986000  0.900000   0.000000   0.000000   0.000000  
; Manhole
60115            33.058000  1.000000   0.000000   0.000000   0.000000  
; Manhole
60116            31.837000  1.111000   0.000000   0.000000   0.000000  
; Manhole
60117            31.485000  0.900000   0.000000   0.000000   0.000000  
; Manhole
60118            34.113000  2.000000   0.000000   0.000000   0.000000  
; Manhole
60119            29.920000  1.300000   0.000000   0.000000   0.000000  
; Manhole
60120            29.475000  1.600000   0.000000   0.000000   0.000000  
; Manhole
60121            28.366000  1.300000   0.000000   0.000000   0.000000  
; Manhole
60122            36.384000  0.800000   0.000000   0.000000   0.000000  
; Manhole
60123            34.695000  0.900000   0.000000   0.000000   0.000000  
; Manhole
60124            37.407000  1.000000   0.000000   0.000000   0.000000  
; Manhole
60125            36.391000  1.400000   0.000000   0.000000   0.000000  
; Manhole
60126            33.900000  1.100000   0.000000   0.000000   0.000000  
; Manhole
60127            33.679000  1.300000   0.000000   0.000000   0.000000  
; Manhole
60128            36.086000  1.400000   0.000000   0.000000   0.000000  
; Manhole
60129            32.475000  1.100000   0.000000   0.000000   0.000000  
; Manhole
60130            30.802000  1.100000   0.000000   0.000000   0.000000  
; Manhole
60131            28.007000  1.300000   0.000000   0.000000   0.000000  
; Manhole
60132            27.783000  1.000000   0.000000   0.000000   0.000000  
; Manhole
60133            37.253000  0.900000   0.000000   0.000000   0.000000  
; Manhole
60134            27.460000  1.400000   0.000000   0.000000   0.000000  
; Manhole
60135            31.559000  0.800000   0.000000   0.000000   0.000000  
; Manhole
60136            26.548000  1.200000   0.000000   0.000000   0.000000  
; Manhole
60137            25.745000  1.678000   0.000000   0.000000   0.000000  
; Manhole
60138            25.102000  1.800000   0.000000   0.000000   0.000000  
; Manhole
60139            29.627000  1.100000   0.000000   0.000000   0.000000  
; Manhole
60140            28.095000  1.500000   0.000000   0.000000   0.000000  
; Manhole
60141            24.743000  1.900000   0.000000   0.000000   0.000000  
; Manhole
60142            25.230000  2.100000   0.000000   0.000000   0.000000  
; Manhole
60143            24.900000  2.017000   0.000000   0.000000   0.000000  
; Manhole
60144            23.715000  3.700000   0.000000   0.000000   0.000000  
; Manhole
60145            26.691000  2.000000   0.000000   0.000000   0.000000  
; Manhole
60146            26.008000  3.200000   0.000000   0.000000   0.000000  
; Manhole
60147            30.295000  1.000000   0.000000   0.000000   0.000000  
; Manhole
60148            25.724000  3.100000   0.000000   0.000000   0.000000  
; Manhole
60149            25.480000  2.600000   0.000000   0.000000   0.000000  
; Manhole
60150            28.153000  1.900000   0.000000   0.000000   0.000000  
; Manhole
60151            27.037000  1.700000   0.000000   0.000000   0.000000  
; Manhole
60152            26.199000  2.800000   0.000000   0.000000   0.000000  
; Manhole
60153            25.603000  2.900000   0.000000   0.000000   0.000000  
; Manhole
60154            24.093000  2.200000   0.000000   0.000000   0.000000  
; Manhole
60155            20.911000  6.200000   0.000000   0.000000   0.000000  
; Manhole
60156            28.300000  0.700000   0.000000   0.000000   0.000000  
; Manhole
60157            27.600000  1.400000   0.000000   0.000000   0.000000  
; Manhole
60158            26.034000  1.500000   0.000000   0.000000   0.000000  
; Manhole
60159            22.500000  4.500000   0.000000   0.000000   0.000000  
; Manhole
60160            21.767000  4.610000   0.000000   0.000000   0.000000  
; Manhole
60161            23.250000  1.750000   0.000000   0.000000   0.000000  
; Manhole
60162            27.143000  1.300000   0.000000   0.000000   0.000000  
; Manhole
60163            24.000000  0.997000   0.000000   0.000000   0.000000  
; Manhole
60164            23.772000  1.106000   0.000000   0.000000   0.000000  
; Manhole
60165            23.448000  2.250000   0.000000   0.000000   0.000000  
; Manhole
60166            20.673000  3.086000   0.000000   0.000000   0.000000  
; Manhole
60167            20.119000  2.350000   0.000000   0.000000   0.000000  
; Manhole
60168            21.936000  1.700000   0.000000   0.000000   0.000000  
; Manhole
60169            22.160000  2.099000   0.000000   0.000000   0.000000  
; Manhole
60170            22.452000  2.859000   0.000000   0.000000   0.000000  
; Manhole
60171            19.674000  4.334000   0.000000   0.000000   0.000000  
; Manhole
60172            22.550000  2.450000   0.000000   0.000000   0.000000  
; Manhole
60173            21.500000  3.500000   0.000000   0.000000   0.000000  
; Manhole
60174            22.542000  0.592000   0.000000   0.000000   0.000000  
; Manhole
60175            22.452000  1.800000   0.000000   0.000000   0.000000  
; Manhole
60176            18.781000  4.000000   0.000000   0.000000   0.000000  
; Manhole
60177            18.100000  2.900000   0.000000   0.000000   0.000000  
; Manhole
60178            21.011000  1.950000   0.000000   0.000000   0.000000  
; Manhole
60179            17.818000  1.867000   0.000000   0.000000   0.000000  
; Manhole
60180            17.000000  2.774000   0.000000   0.000000   0.000000  
; Manhole
60182            22.302000  1.200000   0.000000   0.000000   0.000000  
; Manhole
60183            21.350000  1.650000   0.000000   0.000000   0.000000  
; Manhole
60184            25.032000  1.500000   0.000000   0.000000   0.000000  
; Manhole
60185            19.226000  4.000000   0.000000   0.000000   0.000000  
; Manhole
60186            25.166000  0.500000   0.000000   0.000000   0.000000  
; Manhole
60187            24.768000  1.200000   0.000000   0.000000   0.000000  
; Manhole
60188            24.517000  2.100000   0.000000   0.000000   0.000000  
; Manhole
60189            21.990000  1.500000   0.000000   0.000000   0.000000  
; Manhole
60190            17.356000  3.202000   0.000000   0.000000   0.000000  
; Manhole
60191            25.382000  1.000000   0.000000   0.000000   0.000000  
; Manhole
60192            23.725000  2.700000   0.000000   0.000000   0.000000  
; Manhole
60193            21.550000  1.450000   0.000000   0.000000   0.000000  
; Manhole
60194            26.995000  1.100000   0.000000   0.000000   0.000000  
; Manhole
60195            21.261000  2.800000   0.000000   0.000000   0.000000  
; Manhole
60196            17.197000  1.290000   0.000000   0.000000   0.000000  
; Manhole
60197            19.776000  2.000000   0.000000   0.000000   0.000000  
; Manhole
60198            20.878000  3.600000   0.000000   0.000000   0.000000  
; Manhole
60199            21.298000  3.500000   0.000000   0.000000   0.000000  
; Manhole
60200            22.326000  3.500000   0.000000   0.000000   0.000000  
; Manhole
60201            23.208000  4.000000   0.000000   0.000000   0.000000  
; Manhole
60202            23.288000  3.136000   0.000000   0.000000   0.000000  
; Manhole
60203            23.490000  3.358000   0.000000   0.000000   0.000000  
; Manhole
60204            24.627000  1.373000   0.000000   0.000000   0.000000  
; Manhole
60205            23.800000  0.500000   0.000000   0.000000   0.000000  
; Manhole
60206            23.653000  3.000000   0.000000   0.000000   0.000000  
; Manhole
60208            27.411000  1.350000   0.000000   0.000000   0.000000  
; Manhole
60209            26.800000  2.100000   0.000000   0.000000   0.000000  
; Manhole
60210            26.753000  2.300000   0.000000   0.000000   0.000000  
; Manhole
60211            26.100000  1.900000   0.000000   0.000000   0.000000  
; Manhole
60212            23.901000  3.246000   0.000000   0.000000   0.000000  
; Manhole
60213            24.200000  3.187000   0.000000   0.000000   0.000000  
; Manhole
60214            29.479000  1.300000   0.000000   0.000000   0.000000  
; Manhole
60215            31.320000  1.300000   0.000000   0.000000   0.000000  
; Manhole
60216            30.600000  1.049000   0.000000   0.000000   0.000000  
; Manhole
60217            30.343000  1.300000   0.000000   0.000000   0.000000  
; Manhole
60218            28.848000  2.350000   0.000000   0.000000   0.000000  
; Manhole
60219            27.795000  1.950000   0.000000   0.000000   0.000000  
; Manhole
60220            24.517000  3.718000   0.000000   0.000000   0.000000  
; Manhole
60221            24.755000  3.543000   0.000000   0.000000   0.000000  
; Manhole
60222            25.015000  4.540000   0.000000   0.000000   0.000000  
; Manhole
60223            25.398000  4.860000   0.000000   0.000000   0.000000  
; Manhole
60224            25.987000  4.900000   0.000000   0.000000   0.000000  
; Manhole
60225            26.345000  4.600000   0.000000   0.000000   0.000000  
; Manhole
60226            26.534000  3.780000   0.000000   0.000000   0.000000  
; Manhole
60227            31.101000  1.520000   0.000000   0.000000   0.000000  
; Manhole
60228            31.746000  2.100000   0.000000   0.000000   0.000000  
; Manhole
60229            32.482000  2.100000   0.000000   0.000000   0.000000  
; Manhole
60230            32.479000  1.600000   0.000000   0.000000   0.000000  
; Manhole
60231            33.761000  1.200000   0.000000   0.000000   0.000000  
; Manhole
60232            35.803000  1.300000   0.000000   0.000000   0.000000  
; Manhole
60233            36.494000  2.200000   0.000000   0.000000   0.000000  
; Manhole
60234            27.077000  2.860000   0.000000   0.000000   0.000000  
; Manhole
60235            27.348000  3.350000   0.000000   0.000000   0.000000  
; Manhole
60236            27.839000  3.150000   0.000000   0.000000   0.000000  
; Manhole
60237            30.241000  1.050000   0.000000   0.000000   0.000000  
; Manhole
60238            31.420000  1.950000   0.000000   0.000000   0.000000  
; Manhole
60239            34.385000  0.950000   0.000000   0.000000   0.000000  
; Manhole
60240            35.213000  2.000000   0.000000   0.000000   0.000000  
; Manhole
60241            38.661000  2.000000   0.000000   0.000000   0.000000  
; Manhole
60242            35.059000  1.550000   0.000000   0.000000   0.000000  
; Manhole
60243            38.881000  1.550000   0.000000   0.000000   0.000000  
; Manhole
60245            34.174000  1.850000   0.000000   0.000000   0.000000  
; Manhole
60246            31.055000  2.650000   0.000000   0.000000   0.000000  
; Manhole
60247            28.967000  1.600000   0.000000   0.000000   0.000000  
; Manhole
60253            28.476000  2.700000   0.000000   0.000000   0.000000  
; Manhole
60254            27.981000  4.450000   0.000000   0.000000   0.000000  
; Manhole
60255            27.568000  1.950000   0.000000   0.000000   0.000000  
; Manhole
60256            27.230000  2.900000   0.000000   0.000000   0.000000  
; Manhole
60257            26.595000  2.500000   0.000000   0.000000   0.000000  
; Manhole
60258            39.163000  2.650000   0.000000   0.000000   0.000000  
; Manhole
60259            38.811000  1.500000   0.000000   0.000000   0.000000  
; Manhole
60260            39.656000  0.456000   0.000000   0.000000   0.000000  
; Manhole
60261            39.500000  1.500000   0.000000   0.000000   0.000000  
; Manhole
60262            42.405000  0.855000   0.000000   0.000000   0.000000  
; Manhole
60263            42.235000  1.400000   0.000000   0.000000   0.000000  
; Manhole
60264            40.786000  1.500000   0.000000   0.000000   0.000000  
; Manhole
60265            41.232000  1.300000   0.000000   0.000000   0.000000  
; Manhole
60266            38.097000  1.250000   0.000000   0.000000   0.000000  
; Manhole
60267            36.384000  1.500000   0.000000   0.000000   0.000000  
; Manhole
60268            31.471000  1.650000   0.000000   0.000000   0.000000  
; Manhole
60269            35.899000  1.400000   0.000000   0.000000   0.000000  
; Manhole
60270            32.616000  1.200000   0.000000   0.000000   0.000000  
; Manhole
60271            30.025000  1.550000   0.000000   0.000000   0.000000  
; Manhole
60272            31.907000  1.500000   0.000000   0.000000   0.000000  
; Manhole
60273            23.928000  3.000000   0.000000   0.000000   0.000000  
; Manhole
60274            23.486000  3.100000   0.000000   0.000000   0.000000  
; Manhole
60275            27.777000  1.100000   0.000000   0.000000   0.000000  
; Manhole
60276            32.429000  1.800000   0.000000   0.000000   0.000000  
; Manhole
60277            26.831000  1.300000   0.000000   0.000000   0.000000  
; Manhole
60278            31.865000  0.700000   0.000000   0.000000   0.000000  
; Manhole
60279            27.722000  1.200000   0.000000   0.000000   0.000000  
; Manhole
60280            27.852000  1.597000   0.000000   0.000000   0.000000  
; Manhole
60281            29.954000  1.500000   0.000000   0.000000   0.000000  
; Manhole
60282            29.003000  1.300000   0.000000   0.000000   0.000000  
; Manhole
60283            34.507000  1.700000   0.000000   0.000000   0.000000  
; Manhole
60284            36.887000  1.400000   0.000000   0.000000   0.000000  
; Manhole
60285            39.151000  1.050000   0.000000   0.000000   0.000000  
; Manhole
60286            29.817000  1.950000   0.000000   0.000000   0.000000  
; Manhole
60287            29.770000  1.000000   0.000000   0.000000   0.000000  
; Manhole
60288            25.440000  1.998000   0.000000   0.000000   0.000000  
; Manhole
60289            25.578000  2.164000   0.000000   0.000000   0.000000  
; Manhole
60290            25.728000  2.757000   0.000000   0.000000   0.000000  
; Manhole
60291            25.290000  1.884000   0.000000   0.000000   0.000000  
; Manhole
60292            25.149000  2.260000   0.000000   0.000000   0.000000  
; Manhole
60293            24.999000  2.335000   0.000000   0.000000   0.000000  
; Manhole
60294            24.900000  2.161000   0.000000   0.000000   0.000000  
; Manhole
60295            24.747000  2.398000   0.000000   0.000000   0.000000  
; Manhole
60296            24.655000  2.142000   0.000000   0.000000   0.000000  
; Manhole
60297            24.514000  2.532000   0.000000   0.000000   0.000000  
; Manhole
60298            31.903000  1.000000   0.000000   0.000000   0.000000  
; Manhole
60299            31.477000  1.000000   0.000000   0.000000   0.000000  
; Manhole
60300            30.785000  1.200000   0.000000   0.000000   0.000000  
; Manhole
60301            30.345000  1.320000   0.000000   0.000000   0.000000  
; Manhole
60302            32.189000  1.645000   0.000000   0.000000   0.000000  
; Manhole
60303            31.586000  1.400000   0.000000   0.000000   0.000000  
; Manhole
60304            36.271000  1.400000   0.000000   0.000000   0.000000  
; Manhole
60305            37.000000  1.000000   0.000000   0.000000   0.000000  
; Manhole
60306            28.466000  1.910000   0.000000   0.000000   0.000000  
; Manhole
60307            28.250000  2.543000   0.000000   0.000000   0.000000  
; Manhole
60308            25.874000  2.446000   0.000000   0.000000   0.000000  
; Manhole
60309            25.941000  2.405000   0.000000   0.000000   0.000000  
; Manhole
60310            26.000000  2.645000   0.000000   0.000000   0.000000  
; Manhole
60311            31.041000  1.200000   0.000000   0.000000   0.000000  
; Manhole
60312            35.517000  1.000000   0.000000   0.000000   0.000000  
; Manhole
60313            39.197000  0.900000   0.000000   0.000000   0.000000  
; Manhole
60314            41.547000  0.900000   0.000000   0.000000   0.000000  
; Manhole
60315            26.090000  2.491000   0.000000   0.000000   0.000000  
; Manhole
60316            32.339000  1.000000   0.000000   0.000000   0.000000  
; Manhole
60317            35.784000  1.900000   0.000000   0.000000   0.000000  
; Manhole
60318            41.887000  1.100000   0.000000   0.000000   0.000000  
; Manhole
60319            26.143000  3.431000   0.000000   0.000000   0.000000  
; Manhole
60320            26.206000  4.775000   0.000000   0.000000   0.000000  
; Manhole
60321            26.270000  1.941000   0.000000   0.000000   0.000000  
; Manhole
60322            30.503000  1.300000   0.000000   0.000000   0.000000  
; Manhole
60323            33.340000  1.200000   0.000000   0.000000   0.000000  
; Manhole
60324            37.729000  1.200000   0.000000   0.000000   0.000000  
; Manhole
60325            37.800000  0.980000   0.000000   0.000000   0.000000  
; Manhole
60326            40.338000  1.700000   0.000000   0.000000   0.000000  
; Manhole
60327            42.068000  0.800000   0.000000   0.000000   0.000000  
; Manhole
60328            43.738000  1.200000   0.000000   0.000000   0.000000  
; Manhole
60329            37.613000  0.900000   0.000000   0.000000   0.000000  
; Manhole
60330            30.255000  1.600000   0.000000   0.000000   0.000000  
; Manhole
60331            30.070000  1.900000   0.000000   0.000000   0.000000  
; Manhole
60332            29.503000  2.600000   0.000000   0.000000   0.000000  
; Manhole
60333            32.781000  2.200000   0.000000   0.000000   0.000000  
; Manhole
60334            38.113000  1.400000   0.000000   0.000000   0.000000  
; Manhole
60335            40.192000  1.600000   0.000000   0.000000   0.000000  
; Manhole
60336            41.135000  0.800000   0.000000   0.000000   0.000000  
; Manhole
60337            42.114000  1.200000   0.000000   0.000000   0.000000  
; Manhole
60338            38.450000  0.970000   0.000000   0.000000   0.000000  
; Manhole
60339            40.550000  1.459000   0.000000   0.000000   0.000000  
; Manhole
60340            42.039000  2.800000   0.000000   0.000000   0.000000  
; Manhole
60341            24.372000  2.980000   0.000000   0.000000   0.000000  
; Manhole
60342            24.220000  2.976000   0.000000   0.000000   0.000000  
; Manhole
60343            24.154000  1.901000   0.000000   0.000000   0.000000  
; Manhole
60344            24.080000  2.876000   0.000000   0.000000   0.000000  
; Manhole
60345            27.349000  3.100000   0.000000   0.000000   0.000000  
; Manhole
60346            33.479000  1.900000   0.000000   0.000000   0.000000  
; Manhole
60347            33.577000  2.100000   0.000000   0.000000   0.000000  
; Manhole
60348            37.710000  1.800000   0.000000   0.000000   0.000000  
; Manhole
60349            39.494000  2.050000   0.000000   0.000000   0.000000  
; Manhole
60350            33.886000  1.700000   0.000000   0.000000   0.000000  
; Manhole
60351            36.256000  2.200000   0.000000   0.000000   0.000000  
; Manhole
60352            43.635000  1.100000   0.000000   0.000000   0.000000  
; Manhole
60353            38.663000  2.000000   0.000000   0.000000   0.000000  
; Manhole
60354            42.348000  1.900000   0.000000   0.000000   0.000000  
; Manhole
60355            44.578000  2.400000   0.000000   0.000000   0.000000  
; Manhole
60356            41.950000  1.500000   0.000000   0.000000   0.000000  
; Manhole
60357            48.616000  1.200000   0.000000   0.000000   0.000000  
; Manhole
60358            44.660000  0.954000   0.000000   0.000000   0.000000  
; Manhole
60359            44.506000  1.200000   0.000000   0.000000   0.000000  
; Manhole
60360            42.481000  2.100000   0.000000   0.000000   0.000000  
; Manhole
60361            37.363000  1.800000   0.000000   0.000000   0.000000  
; Manhole
60362            38.601000  1.800000   0.000000   0.000000   0.000000  
; Manhole
60363            36.313000  1.200000   0.000000   0.000000   0.000000  
; Manhole
60364            46.229000  1.200000   0.000000   0.000000   0.000000  
; Manhole
60365            43.800000  1.200000   0.000000   0.000000   0.000000  
; Manhole
60366            41.998000  1.100000   0.000000   0.000000   0.000000  
; Manhole
60367            38.088000  1.200000   0.000000   0.000000   0.000000  
; Manhole
60368            35.421000  1.300000   0.000000   0.000000   0.000000  
; Manhole
60369            34.291000  1.400000   0.000000   0.000000   0.000000  
; Manhole
60370            32.832000  1.500000   0.000000   0.000000   0.000000  
; Manhole
60371            32.344000  1.490000   0.000000   0.000000   0.000000  
; Manhole
60372            32.986000  1.600000   0.000000   0.000000   0.000000  
; Manhole
60373            31.900000  0.847000   0.000000   0.000000   0.000000  
; Manhole
60374            31.500000  0.500000   0.000000   0.000000   0.000000  
; Manhole
60375            36.474000  1.200000   0.000000   0.000000   0.000000  
; Manhole
60377            31.589000  1.400000   0.000000   0.000000   0.000000  
; Manhole
60378            29.802000  1.100000   0.000000   0.000000   0.000000  
; Manhole
60379            27.730000  1.502000   0.000000   0.000000   0.000000  
; Manhole
60380            27.627000  1.643000   0.000000   0.000000   0.000000  
; Manhole
60381            27.396000  3.388000   0.000000   0.000000   0.000000  
; Manhole
60382            27.100000  2.326000   0.000000   0.000000   0.000000  
; Manhole
60383            30.780000  0.900000   0.000000   0.000000   0.000000  
; Manhole
60384            34.423000  1.400000   0.000000   0.000000   0.000000  
; Manhole
60385            27.006000  1.010000   0.000000   0.000000   0.000000  
; Manhole
60386            26.804000  2.148000   0.000000   0.000000   0.000000  
; Manhole
60387            28.118000  1.000000   0.000000   0.000000   0.000000  
; Manhole
60388            28.806000  0.800000   0.000000   0.000000   0.000000  
; Manhole
60389            31.421000  1.150000   0.000000   0.000000   0.000000  
; Manhole
60390            33.870000  1.100000   0.000000   0.000000   0.000000  
; Manhole
60391            26.326000  2.799000   0.000000   0.000000   0.000000  
; Manhole
60392            26.392000  1.286000   0.000000   0.000000   0.000000  
; Manhole
60393            31.049000  1.400000   0.000000   0.000000   0.000000  
; Manhole
60394            36.714000  1.000000   0.000000   0.000000   0.000000  
; Manhole
60395            41.000000  1.000000   0.000000   0.000000   0.000000  
; Manhole
60396            26.435000  2.294000   0.000000   0.000000   0.000000  
; Manhole
60397            26.513000  1.338000   0.000000   0.000000   0.000000  
; Manhole
60398            26.540000  2.051000   0.000000   0.000000   0.000000  
; Manhole
60399            26.700000  1.604000   0.000000   0.000000   0.000000  
; Manhole
60400            27.000000  1.844000   0.000000   0.000000   0.000000  
; Manhole
60401            28.072000  1.100000   0.000000   0.000000   0.000000  
; Manhole
60402            28.837000  1.100000   0.000000   0.000000   0.000000  
; Manhole
60403            32.429000  1.300000   0.000000   0.000000   0.000000  
; Manhole
60404            37.341000  1.300000   0.000000   0.000000   0.000000  
; Manhole
60405            28.380000  2.350000   0.000000   0.000000   0.000000  
; Manhole
60406            29.352000  2.200000   0.000000   0.000000   0.000000  
; Manhole
60407            33.945000  1.300000   0.000000   0.000000   0.000000  
; Manhole
60408            37.702000  1.000000   0.000000   0.000000   0.000000  
; Manhole
60409            38.286000  1.200000   0.000000   0.000000   0.000000  
; Manhole
60410            39.670000  1.200000   0.000000   0.000000   0.000000  
; Manhole
60411            41.054000  0.800000   0.000000   0.000000   0.000000  
; Manhole
60412            30.518000  2.300000   0.000000   0.000000   0.000000  
; Manhole
60413            31.232000  2.000000   0.000000   0.000000   0.000000  
; Manhole
60414            35.514000  1.400000   0.000000   0.000000   0.000000  
; Manhole
60415            31.565000  2.300000   0.000000   0.000000   0.000000  
; Manhole
60416            36.123000  1.200000   0.000000   0.000000   0.000000  
; Manhole
60417            38.448000  1.300000   0.000000   0.000000   0.000000  
; Manhole
60418            39.967000  1.100000   0.000000   0.000000   0.000000  
; Manhole
60419            42.000000  1.000000   0.000000   0.000000   0.000000  
; Manhole
60420            38.709000  1.000000   0.000000   0.000000   0.000000  
; Manhole
60421            34.703000  0.900000   0.000000   0.000000   0.000000  
; Manhole
60422            34.554000  1.200000   0.000000   0.000000   0.000000  
; Manhole
60423            30.539000  1.600000   0.000000   0.000000   0.000000  
; Manhole
60424            23.945000  3.036000   0.000000   0.000000   0.000000  
; Manhole
60425            23.810000  2.762000   0.000000   0.000000   0.000000  
; Manhole
60426            41.300000  1.700000   0.000000   0.000000   0.000000  
; Manhole
60427            47.183000  1.800000   0.000000   0.000000   0.000000  
; Manhole
60428            44.505000  1.400000   0.000000   0.000000   0.000000  
; Manhole
60429            46.196000  1.900000   0.000000   0.000000   0.000000  
; Manhole
60430            48.108000  1.600000   0.000000   0.000000   0.000000  
; Manhole
60431            48.704000  1.300000   0.000000   0.000000   0.000000  
; Manhole
60432            47.078000  1.400000   0.000000   0.000000   0.000000  
; Manhole
60433            43.419000  1.300000   0.000000   0.000000   0.000000  
; Manhole
60434            39.612000  1.400000   0.000000   0.000000   0.000000  
; Manhole