[TITLE]
;;Project Title/Notes

[OPTIONS]
;;Option             Value
FLOW_UNITS           CFS
INFILTRATION         HORTON
FLOW_ROUTING         DYNWAVE
LINK_OFFSETS         DEPTH
MIN_SLOPE            0
ALLOW_PONDING        NO
SKIP_STEADY_STATE    NO

START_DATE           01/01/2000
START_TIME           00:00:00
REPORT_START_DATE    01/01/2000
REPORT_START_TIME    00:00:00
END_DATE             01/03/2000
END_TIME             00:00:00
SWEEP_START          01/01
SWEEP_END            01/01
DRY_DAYS             0
REPORT_STEP          00:12:00
WET_STEP             00:15:00
DRY_STEP             01:00:00
ROUTING_STEP         0:00:30 

INERTIAL_DAMPING     NONE
NORMAL_FLOW_LIMITED  BOTH
FORCE_MAIN_EQUATION  H-W
VARIABLE_STEP        0.75
LENGTHENING_STEP     5
MIN_SURFAREA         12.557
MAX_TRIALS           8
HEAD_TOLERANCE       0.005
SYS_FLOW_TOL         5
LAT_FLOW_TOL         5
MINIMUM_STEP         0
THREADS              1

[EVAPORATION]
;;Data Source    Parameters
;;-------------- ----------------
CONSTANT         0.0
DRY_ONLY         NO

[JUNCTIONS]
;;Name           Elevation  MaxDepth   InitDepth  SurDepth   Aponded   
;;-------------- ---------- ---------- ---------- ---------- ----------
BLM001           1148.68    9.52259000000004 0          0          0         
BLM002           1150.84    10.1964800000001 0          0          0         
BLM003           1151.68    5.10267999999996 0          0          0         
BLM004           1149.87    4.10120000000006 0          0          0         
BLM005           1153.14    6.33896999999979 0          0          0         
BLM006           1153.27    4.77999999999997 0          0          0         
BLM007           1153.86    8.38413000000014 0          0          0         
BLM008           1159.03    21.88346   0          0          0         
BLM009           1160.76    6.19540000000006 0          0          0         
BLM010           1161.36    8.09770000000003 0          0          0         
BLM011           1161.76    13.0153499999999 0          0          0         
BLM012           1163.08    15.0991000000001 0          0          0         
BLM013           1180.08    7.74274000000014 0          0          0         
BLM014           1170.35    10.2002100000002 0          0          0         
BLM015           1178.7     9.10249999999996 0          0          0         
BLM016           1175.22    8.10162999999989 0          0          0         
BLM017           1186.58    9.4847400000001 0          0          0         
BLM018           1186.47    8.31944999999996 0          0          0         
BLM019           1187.91    11.32133   0          0          0         
BLM020           1188.03    11.27648   0          0          0         
BLM021           1202.18    10.00164   0          0          0         
BLM022           1210.92    8.94479000000001 0          0          0         
BLM023           1208.94    13.5382499999998 0          0          0         
BLM024           1216.98    10.3030899999999 0          0          0         
BLM025           1225.26    8.85588000000007 0          0          0         
BLM026           1229.38    16.1985599999998 0          0          0         
BLM027           1258.37    10.9780900000001 0          0          0         
BLM028           1278.82    9.79952000000003 0          0          0         
BLM029           1285.36    14.59609   0          0          0         
BLM030           1286.45    15.51756   0          0          0         
BLM031           1288.8     16.7447999999999 0          0          0         
BLM032           1295.51    11.99524   0          0          0         
BLM033           1290.07    16.1247500000002 0          0          0         
BLM034           1290.29    14.37673   0          0          0         
BLM035           1291.51    13.6962900000001 0          0          0         
BLM036           1292.4     13.4992199999999 0          0          0         
BLM037           1299.04    9.64197000000013 0          0          0         
BLM038           1291.95    11.5245499999999 0          0          0         
BLM039           1291.32    12.5199700000001 0          0          0         
BLM040           1298.17    12.8767499999999 0          0          0         
BLM041           1293.36    9.48184000000015 0          0          0         
BLM042           1292.06    7.71543999999994 0          0          0         
BLM043           1300.99    9.65839000000005 0          0          0         
BLM044           1293.62    6.68063000000006 0          0          0         
BLM045           1297.48    7.53996000000006 0          0          0         
BLM046           1299.48    12.69821   0          0          0         
BLM047           1294.43    7.34287999999992 0          0          0         
BLM048           1298.55    7.46057999999994 0          0          0         
BLM049           1296.71    7.74335999999994 0          0          0         
BLM050           1303.57    9.98277000000007 0          0          0         
BLM051           1301.7     13.01505   0          0          0         
BLM052           1299.74    8.02243999999996 0          0          0         
BLM053           1298.97    7.71931999999993 0          0          0         
BLM054           1305.64    5.7029     0          0          0         
BLM055           1301.61    7.91831999999999 0          0          0         
BLM056           1302.71    7.79615999999987 0          0          0         
ETO002           1014.16    21.8197000000001 0          0          0         
ETO003           1017.03    15.7902799999999 0          0          0         
ETO004           1013.68    9.95997    0          0          0         
ETO005           1023.36    7.79720000000009 0          0          0         
ETO006           1013.99    18.8599999999999 0          0          0         
ETO007           1026.01    6.0643     0          0          0         
ETO008           1014.2     18.3899999999999 0          0          0         
ETO009           1026.97    7.80134999999996 0          0          0         
ETO010           1014.44    24.01      0          0          0         
ETO011           1014.74    26.5599999999999 0          0          0         
ETO012           1031.93    17.17632   0          0          0         
ETO013           1015.12    27.60082   0          0          0         
ETO014           1032.63    7.53616999999986 0          0          0         
ETO015           1015.4     27.0300000000001 0          0          0         
ETO016           1033.69    8.60086000000001 0          0          0         
ETO017           1015.52    24.8800000000001 0          0          0         
ETO018           1034.86    9.69901000000004 0          0          0         
ETO019           1015.75    21.8699999999999 0          0          0         
ETO020           1056.08    10.8970000000002 0          0          0         
ETO021           1015.94    23.23      0          0          0         
ETO022           1064.65    12.9556    0          0          0         
ETO023           1085.18    11.96      0          0          0         
ETO024           1016.28    21.3900000000001 0          0          0         
ETO025           1094.13    8.79806999999983 0          0          0         
ETO026           1103.05    9.90484000000015 0          0          0         
ETO027           1016.51    22.1500000000001 0          0          0         
ETO028           1129.17    7.87572999999998 0          0          0         
ETO029           1016.83    20.2499999999999 0          0          0         
ETO030           1158.66    6.90309999999999 0          0          0         
ETO031           1183.8     15.9774    0          0          0         
ETO032           1017.12    24.3100000000001 0          0          0         
ETO033           1162.95    11.0602999999999 0          0          0         
ETO034           1017.21    20.75      0          0          0         
ETO035           1017.51    19.6400000000001 0          0          0         
ETO036           1200.45    12.0372    0          0          0         
ETO037           1204.88    5.55892999999992 0          0          0         
ETO038           1166.12    11.02422   0          0          0         
ETO039           1017.64    16.36      0          0          0         
ETO040           1174.93    9.46370999999999 0          0          0         
ETO042           1176.17    15.28208   0          0          0         
ETO043           1018.31    21.8823    0          0          0         
ETO044           1018.72    20.4631199999999 0          0          0         
ETO045           1019       21.54215   0          0          0         
ETO046           1019.45    21.8960099999999 0          0          0         
ETO047           1115.15    10.3033899999998 0          0          0         
ETO048           1119.51    11.80126   0          0          0         
ETO049           1020.13    18.5388899999999 0          0          0         
ETO050           1122.12    12.8834100000001 0          0          0         
ETO051           1124.13    11.7422199999999 0          0          0         
ETO052           1020.25    17.73676   0          0          0         
ETO053           1125.16    11.4004599999998 0          0          0         
ETO054           1020.59    19.70394   0          0          0         
ETO055           1021.05    19.80143   0          0          0         
ETO056           1021.5     18.20418   0          0          0         
ETO057           1021.82    18.6356099999999 0          0          0         
ETO058           1022.15    19.6835199999999 0          0          0         
ETO059           1022.59    19.6387699999999 0          0          0         
ETO060           1023.14    19.6985000000001 0          0          0         
ETO061           1023.61    20.25733   0          0          0         
ETO062           1023.91    18.9023700000001 0          0          0         
ETO063           1024.53    18.41698   0          0          0         
ETO064           1025.2     18.28621   0          0          0         
ETO065           1025.67    16.77775   0          0          0         
ETO066           1026.78    18.16473   0          0          0         
ETO067           1026.79    16.3643500000001 0          0          0         
ETO068           1027.4     18.4150499999998 0          0          0         
ETO069           1027.69    17.9808699999999 0          0          0         
ETO070           1027.99    18.79972   0          0          0         
ETO071           1028.16    19.3984699999999 0          0          0         
ETO072           1028.6     19.80097   0          0          0         
GRZ001           1196.12    9.52329000000009 0          0          0         
GRZ002           1203.42    17.43004   0          0          0         
GRZ003           1204.74    14.44496   0          0          0         
GRZ004           1234.32    6.17847000000006 0          0          0         
GRZ005           1206.41    15.1487599999998 0          0          0         
GRZ006           1207.46    14.11842   0          0          0         
GRZ007           1220.02    17.42299   0          0          0         
GRZ008           1210.58    14.5611900000001 0          0          0         
GRZ009           1225.62    16.8961000000002 0          0          0         
GRZ010           1220.23    19.37979   0          0          0         
GRZ011           1230.62    13.1179000000002 0          0          0         
GRZ012           1232.65    17.78495   0          0          0         
GRZ013           1235.38    15.4785199999999 0          0          0         
NIX002           1089.09    10.97596   0          0          0         
NIX003           1090.85    12.2828200000001 0          0          0         
NIX004           1108.46    8.32035999999994 0          0          0         
NIX005           1091.46    15.83842   0          0          0         
NIX006           1114.8     22.3575499999999 0          0          0         
NIX007           1091.99    12.2022300000001 0          0          0         
NIX008           1127.91    11.2554699999998 0          0          0         
NIX009           1093.72    17.66218   0          0          0         
NIX010           1134.81    8.85649000000012 0          0          0         
NIX011           1094.7     14.40345   0          0          0         
NIX012           1129.21    8.49993999999992 0          0          0         
NIX013           1138.87    8.8414200000002 0          0          0         
NIX014           1095.41    20.9152999999999 0          0          0         
NIX015           1138       8.32114999999999 0          0          0         
NIX016           1142.72    8.55590000000007 0          0          0         
NIX017           1095.67    14.11742   0          0          0         
NIX018           1096.28    16.3975700000001 0          0          0         
NIX019           1143.79    8.68353999999999 0          0          0         
NIX020           1108.53    19.0044800000001 0          0          0         
NIX021           1151.27    8.91913    0          0          0         
NIX022           1121.32    22.3962000000001 0          0          0         
NIX023           1122.04    9.02444000000014 0          0          0         
NIX024           1154.03    8.88274000000001 0          0          0         
NIX025           1126.46    18.5369699999999 0          0          0         
NIX026           1126.81    12.1244100000001 0          0          0         
NIX027           1129.43    14.3820699999999 0          0          0         
NIX028           1098.68    10.30241   0          0          0         
NIX029           1134.86    16.4366400000001 0          0          0         
NIX030           1099.18    26.15816   0          0          0         
NIX031           1135.52    14.0227400000001 0          0          0         
NIX032           1144.25    8.81952999999999 0          0          0         
NIX033           1153.35    12.4079200000001 0          0          0         
NIX034           1099.9     16.4834899999998 0          0          0         
NIX035           1136.83    15.09591   0          0          0         
NIX036           1149.01    7.36307000000011 0          0          0         
NIX037           1137.67    10.0957099999998 0          0          0         
NIX038           1100.67    10.6362999999999 0          0          0         
NIX039           1138.33    8.30223999999998 0          0          0         
NIX040           1169.89    8.25744999999984 0          0          0         
NIX041           1159.07    16.5367100000001 0          0          0         
NIX042           1170.92    8.58385999999996 0          0          0         
NIX043           1161.11    15.0642300000002 0          0          0         
NIX044           1101.74    11.8848800000001 0          0          0         
NIX045           1102.24    8.98175999999989 0          0          0         
NIX046           1150.67    8.60023999999999 0          0          0         
NIX047           1152.08    8.26273000000015 0          0          0         
NIX048           1162.98    8.92183999999997 0          0          0         
NIX049           1163.36    7.9028800000001 0          0          0         
NIX050           1103.45    14.8760399999999 0          0          0         
NIX051           1105.51    7.50335999999993 0          0          0         
NIX052           1107.47    6.82169999999996 0          0          0         
NIX053           1109.71    8.18381999999997 0          0          0         
NIX054           1112.54    8.69750999999997 0          0          0         
NIX055           1115.21    8.34361999999987 0          0          0         
NIX056           1097.26    19.51982   0          0          0         
TAF001           1029.64    16.06441   0          0          0         
TAF002           1031.6     12.1180400000001 0          0          0         
TAF003           1034.5     15.54484   0          0          0         
TAF004           1036.14    11.5220999999999 0          0          0         
TAF005           1038.69    24.6010999999999 0          0          0         
TAF006           1039.42    16.5845199999999 0          0          0         
TAF007           1041.23    11.9589599999999 0          0          0         
TAF008           1043.64    11.83907   0          0          0         
TAF009           1045.71    26.4621    0          0          0         
TAF010           1046.44    17.9070299999999 0          0          0         
TAF011           1047.78    15.2450100000001 0          0          0         
TAF012           1049.23    16.74316   0          0          0         
TAF013           1050.03    12.5004300000001 0          0          0         
TAF014           1050.32    23.4620200000002 0          0          0         
TAF015           1051.13    9.50370999999996 0          0          0         
TAF016           1053.76    10.52143   0          0          0         
TAF017           1063.43    19.0846999999999 0          0          0         
TAF018           1064.85    15.59925   0          0          0         
TAF019           1065       21.39552   0          0          0         
TAF020           1065.43    13.6579299999999 0          0          0         
TAF021           1066.33    15.5775100000001 0          0          0         
TAF022           1067.47    14.6390899999999 0          0          0         
TAF023           1068.21    14.5586599999999 0          0          0         
TAF024           1068.88    18.4199999999998 0          0          0         
TAF025           1069.34    7.55000000000018 0          0          0         
TAF026           1070.24    10.5999999999999 0          0          0         
TAF027           1072.01    14.5       0          0          0         
TAF028           1072.77    12.6800000000001 0          0          0         
TAF029           1072.93    11.46      0          0          0         
TAF030           1073.22    14.95      0          0          0         
TAF031           1073.44    8.39999999999986 0          0          0         
TAF032           1076.07    11.52      0          0          0         
TAF033           1077.17    5.31999999999994 0          0          0         
TAF034           1077.65    5.48000000000002 0          0          0         
TAF035           1078.95    5.29999999999995 0          0          0         
TAF036           1079.81    8.36000000000013 0          0          0         
TAF037           1082.69    6.20000000000005 0          0          0         
TAF038           1083.03    11.22      0          0          0         
TAF039           1095.4     18.7959799999999 0          0          0         
TAF040           1083.76    8.5809099999999 0          0          0         
TAF041           1110.28    22.55864   0          0          0         
TAF042           1084.91    33.4701    0          0          0         
TAF043           1112.47    20.3787299999999 0          0          0         
TAF044           1112.34    8.23987000000011 0          0          0         
TAF045           1130.53    14.2214300000001 0          0          0         
TAF046           1115.83    6.31896000000006 0          0          0         
TAF047           1135.43    12.9599599999999 0          0          0         
TAF048           1121.63    15.30108   0          0          0         
TAF049           1130.67    18.7959799999999 0          0          0         
TAF050           1144.48    18.5351499999999 0          0          0         
TAF051           1086.08    24.3164000000002 0          0          0         
TAF052           1162.95    16.38381   0          0          0         
TAF054           1168.91    15.0793999999999 0          0          0         
TAF055           1086.79    10.20137   0          0          0         
TAF056           1151.49    20.41615   0          0          0         
TAF057           1172.26    10.43975   0          0          0         
TAF058           1160.16    13.94336   0          0          0         
TAF059           1171.24    11.72126   0          0          0         
TAF060           1088.74    13.6592000000001 0          0          0         
TAF061           1173.22    12.77845   0          0          0         
TAF062           1163.22    25.13546   0          0          0         
TAF063           1199.61    9.86462000000006 0          0          0         
TAF064           1178.18    13.9048299999999 0          0          0         
TAF065           1179.16    11.3955099999998 0          0          0         
TAF066           1206.95    7.20265999999992 0          0          0         
TAF067           1177.07    11.9200000000001 0          0          0         
TAF068           1165.21    21.4803899999999 0          0          0         
TAF069           1191.77    7.87522000000013 0          0          0         
TAF070           1176.54    14.9565299999999 0          0          0         
TAF071           1092.44    28.0645    0          0          0         
TAF072           1180.61    13.01791   0          0          0         
TAF073           1183.76    11.58494   0          0          0         
TAF074           1176.59    13.43625   0          0          0         
TAF075           1094.64    31.0938999999998 0          0          0         
TAF076           1193.84    11.2582100000002 0          0          0         
TAF077           1197.47    11.9983    0          0          0         
TAF078           1181.4     11.83726   0          0          0         
TAF079           1097.76    11.51845   0          0          0         
TAF080           1205.65    9.70408999999995 0          0          0         
TAF081           1187.89    9.37662999999998 0          0          0         
TAF082           1100.44    19.4569999999999 0          0          0         
TAF083           1104.19    12.5021999999999 0          0          0         
TAF084           1108.96    20.6776    0          0          0         
TAF085           1110.58    10.6596400000001 0          0          0         
TAF086           1111.87    17.7977000000001 0          0          0         
TAF087           1128.89    10.4998599999999 0          0          0         
TAF088           1132       9.96039999999994 0          0          0         
TAF089           1116.81    9.202      0          0          0         
TAF090           1117.98    24.8464999999999 0          0          0         
TAF091           1138.77    13.9435900000001 0          0          0         
TAF092           1119.9     17.9200999999998 0          0          0         
TAF093           1121.65    17.6805299999999 0          0          0         
TAF094           1144.37    12.2597700000001 0          0          0         
TAF095           1124.73    17.69949   0          0          0         
TAF096           1149.99    9.02106000000003 0          0          0         
TAF097           1127.52    17.39617   0          0          0         
TAF098           1128       12.78919   0          0          0         
TAF099           1158.67    9.60310000000004 0          0          0         
TAF100           1128.65    6.98473999999987 0          0          0         
TAF101           1129.82    17.6184700000001 0          0          0         
TAF102           1130.9     7.44169999999986 0          0          0         
TAF103           1160.91    5.20456999999988 0          0          0         
TAF104           1134       9.60953999999992 0          0          0         
TAF105           1162.63    13.1970999999999 0          0          0         
TAF106           1134.01    18.5996399999999 0          0          0         
TAF107           1137.58    7.49952000000008 0          0          0         
TAF108           1169.24    16.3405499999999 0          0          0         
TAF109           1149.94    15.51665   0          0          0         
TAF110           1140.3     17.1795999999999 0          0          0         
TAF111           1147.65    9.47892000000002 0          0          0         
TAF112           1148.89    13.3236399999998 0          0          0         
TAF113           1180.46    17.5975699999999 0          0          0         
TAF114           1153.13    18.5001399999999 0          0          0         
TAF115           1150.95    12.5990299999999 0          0          0         
TAF116           1182.4     25.69831   0          0          0         
TAF117           1150.68    13.0956999999999 0          0          0         
TAF118           1154.57    19.08332   0          0          0         
TAF119           1154.52    20.09547   0          0          0         
TAF120           1157.34    22.7806500000002 0          0          0         
TAF121           1168.07    7.76367000000005 0          0          0         
TAF122           1155.64    13.5241599999999 0          0          0         
TAF123           1160.36    11.7410000000002 0          0          0         
TAF124           1174.48    39.5293999999999 0          0          0         
TAF125           1188.15    9.47529999999983 0          0          0         
TAF126           1189.57    19.5017600000001 0          0          0         
TAF127           1199.78    16.4640300000001 0          0          0         
TAF128           1194.21    15.3584599999999 0          0          0         
TAF129           1212.26    8.64120000000003 0          0          0         
TAF130           1198.3     9.00144    0          0          0         
TAF131           1131.13    21.9397899999999 0          0          0         
TAF132           1132.96    6.79581000000007 0          0          0         
TAF133           1217.03    9.49936000000002 0          0          0         
TAF134           1134.5     7.34464000000003 0          0          0         
TAF135           1222.91    8.5021099999999 0          0          0         
TAF136           1136.71    10.3775499999999 0          0          0         
TAF137           1223.64    9.51937999999996 0          0          0         
TAF138           1160.08    24.81945   0          0          0         
TAF139           1224.36    11.5969500000001 0          0          0         
TAF140           1137.81    14.6708599999999 0          0          0         
TAF141           1137.99    12.59429   0          0          0         
TAF142           1226.59    9.0951     0          0          0         
TAF143           1237.73    5.49863000000005 0          0          0         
TAF144           1139.57    7.49568999999997 0          0          0         
TAF145           1245.77    12.2959000000001 0          0          0         
TAF146           1230.35    9.16056000000003 0          0          0         
TAF147           1139.7     5.71619999999984 0          0          0         
TAF148           1162.42    22.5026599999999 0          0          0         
TAF149           1140.22    4.00325999999995 0          0          0         
TAF150           1246.98    24.99657   0          0          0         
TAF151           1249.42    9.55305999999996 0          0          0         
TAF152           1247.39    24.5029099999999 0          0          0         
TAF153           1250.96    4.07547    0          0          0         
TAF154           1164.86    12.0468700000001 0          0          0         
TAF155           1174.36    12.4822800000002 0          0          0         
TAF156           1250.05    18.94219   0          0          0         
TAF157           1265.31    16.4810600000001 0          0          0         
TAF158           1176.88    12.1294899999998 0          0          0         
TAF159           1251.65    26.6833999999999 0          0          0         
TAF160           1178.31    12.4564700000001 0          0          0         
TAF161           1252.38    25.5987699999998 0          0          0         
TAF162           1253.56    21.5211200000001 0          0          0         
TAF163           1179.53    12.77747   0          0          0         
TAF164           1180.2     13.0960599999999 0          0          0         
TAF165           1255.14    15.0778599999999 0          0          0         
TAF166           1181.58    13.09887   0          0          0         
TAF167           1182.3     12.92093   0          0          0         
TAF168           1256.39    9.30052999999998 0          0          0         
TAF169           1183.59    12.86076   0          0          0         
TAF170           1257.05    8.82057000000009 0          0          0         
TAF171           1186.02    10.1265700000001 0          0          0         
TAF172           1186.65    22.1400299999998 0          0          0         
TAF173           1202.4     8.76261    0          0          0         
TAF174           1204.52    12.59692   0          0          0         
TAF175           1206.4     12.6563999999998 0          0          0         
TAF176           1213.46    12.41851   0          0          0         
TAF177           1204.86    10.62246   0          0          0         
THO001           1081.91    17.9959299999998 0          0          0         
THO002           1085.22    18.7420099999999 0          0          0         
THO003           1084.54    16.54979   0          0          0         
THO004           1087.53    16.98233   0          0          0         
THO005           1089.73    13.3018    0          0          0         
THO006           1090.15    14.4988499999999 0          0          0         
THO007           1091.45    11.4667199999999 0          0          0         
THO008           1092.18    12.52332   0          0          0         