[TITLE]
;;Project Title/Notes

[OPTIONS]
;;Option             Value
FLOW_UNITS           CFS
INFILTRATION         GREEN_AMPT
FLOW_ROUTING         DYNWAVE
LINK_OFFSETS         ELEVATION
MIN_SLOPE            0
ALLOW_PONDING        NO
SKIP_STEADY_STATE    NO

START_DATE           01/14/2010
START_TIME           00:00:00
REPORT_START_DATE    01/14/2010
REPORT_START_TIME    00:00:00
END_DATE             01/15/2010
END_TIME             00:00:00
SWEEP_START          01/01
SWEEP_END            12/31
DRY_DAYS             0
REPORT_STEP          0:06:00
WET_STEP             0:06:00
DRY_STEP             1:00:00
ROUTING_STEP         0.75

INERTIAL_DAMPING     NONE
NORMAL_FLOW_LIMITED  BOTH
FORCE_MAIN_EQUATION  H-W
VARIABLE_STEP        0.90
LENGTHENING_STEP     0
MIN_SURFAREA         0
MAX_TRIALS           0
HEAD_TOLERANCE       0
SYS_FLOW_TOL         5
LAT_FLOW_TOL         5
MINIMUM_STEP         0.5
THREADS              1

[EVAPORATION]
;;Data Source    Parameters
;;-------------- ----------------
CONSTANT         0.0
DRY_ONLY         NO

[RAINGAGES]
;;Name           Format    Interval SCF      Source    
;;-------------- --------- ------ ------ ----------
USACE_10year_4hour INTENSITY 0:06     1.0      TIMESERIES USACE_10year_4hour
USACE_5year_4hour INTENSITY 0:06     1.0      TIMESERIES USACE_5year_4hour
SCS_24h_Type_I_1.64in_5year INTENSITY 0:15     1.0      TIMESERIES SCS_24h_Type_I_1.64in
SCS_24h_Type_I_1.86in_10year INTENSITY 0:15     1.0      TIMESERIES SCS_24h_Type_I_1.86in
SCS_24h_Type_I_2.14in_25year INTENSITY 0:15     1.0      TIMESERIES SCS_24h_Type_I_2.14in
USACE_25year_4hour INTENSITY 0:06     1.0      TIMESERIES USACE_25year_4hour

[SUBCATCHMENTS]
;;Name           Rain Gage        Outlet           Area     %Imperv  Width    %Slope   CurbLen  SnowPack        
;;-------------- ---------------- ---------------- -------- -------- -------- -------- -------- ----------------
;FOUND
S40891           USACE_5year_4hour N_4089           7.47     70.36474 1436.4829 4.906037330627 0                        
;FOUND
S45321           USACE_5year_4hour N_4532           38.43    53.54656 91.413   3.952321767807 0                        
;FOUND
S3992            USACE_5year_4hour N_3992           2.23     95.14092 477.2115 2.851023197174 0                        
;FOUND
S4182            USACE_5year_4hour N_4182           1.95     81.21575 344.2998 2.898086309433 0                        
;FOUND
S39991           USACE_5year_4hour N_3999           5.51     9.36015  580.5427 7.907220363617 0                        
;FOUND
S39992           USACE_5year_4hour N_3999           2.6      29.70904 106.9747 5.404992103577 0                        
;FOUND
S4172            USACE_5year_4hour N_4172           7.43     53.17936 457.0974 3.232597112656 0                        
;FOUND
S4165            USACE_5year_4hour N_4165           16.77    35.27788 514.8871 3.896394014359 0                        
;FOUND
S3995            USACE_5year_4hour N_3995           0.96     26.20102 184.798  4.278059482574 0                        
;FOUND
S3997            USACE_5year_4hour N_3997           1.82     45.50331 658.1802 5.571452140808 0                        
;FOUND
S4174            USACE_5year_4hour N_4174           3.24     34.18339 220.7027 3.910412549973 0                        
;FOUND
S4171            USACE_5year_4hour N_4171           14.43    39.66512 466.0834 3.853592634201 0                        
;FOUND
S41701           USACE_5year_4hour N_4170           1.07     44.28291 288.6514 4.19402217865 0                        
;FOUND
S41681           USACE_5year_4hour N_4168           0.85     19.42095 157.7475 4.176301002502 0                        
;FOUND
S41661           USACE_5year_4hour N_4166           3.24     27.91227 260.746  3.98774600029 0                        
;FOUND
S4556            USACE_5year_4hour N_4556           2.54     32.64103 322.9161 3.935790538788 0                        
;FOUND
S41702           USACE_5year_4hour N_4170           6.87     34.3277  373.0738 4.698561668396 0                        
;FOUND
S45351           USACE_5year_4hour N_4535           1.63     72.64493 96.2128  4.578973770142 0                        
;FOUND
S4533            USACE_5year_4hour N_4533           1.26     76.9385  179.6815 4.061430454254 0                        
;FOUND
S5108            USACE_5year_4hour N_5108           0.86     70.39148 155.7539 4.177542209625 0                        
;FOUND
S45361           USACE_5year_4hour N_4536           2.6      60.0221  825.329  3.617606878281 0                        
;FOUND
S39901           USACE_5year_4hour N_3990           6.1      56.14395 471.6687 3.232848405838 0                        
;FOUND
S45311           USACE_5year_4hour N_4531           2.32     58.54329 738.5735 3.602882623672 0                        
;FOUND
S41682           USACE_5year_4hour N_4168           2.89     59.31213 385.5057 4.153744220734 0                        
;FOUND
S41683           USACE_5year_4hour N_4168           5.57     19.57999 295.8621 4.306978225708 0                        
;FOUND
S4527            USACE_5year_4hour N_4527           0.86     18.80448 180.0469 3.833321094513 0                        
;FOUND
S4528            USACE_5year_4hour N_4528           4.17     48.94471 432.1546 3.627016305923 0                        
;FOUND
S45322           USACE_5year_4hour N_4532           2.01     64.20992 574.3899 3.309726476669 0                        
;FOUND
S45312           USACE_5year_4hour N_4531           1.14     54.39907 190.4332 3.941349029541 0                        
;FOUND
S4835            USACE_5year_4hour N_4835           3.94     11.79479 375.7573 3.489777803421 0                        
;FOUND
S4851            USACE_5year_4hour N_4851           2.5      54.12302 355.9269 3.722792387009 0                        
;FOUND
S5098            USACE_5year_4hour N_5098           1.61     86.80065 358.4227 3.949115276337 0                        
;FOUND
S40892           USACE_5year_4hour N_4089           3.25     67.49435 673.2868 3.93768286705 0                        
;FOUND
S4836            USACE_5year_4hour N_4836           1.12     39.07604 264.8555 5.070153236389 0                        
;FOUND
S4837            USACE_5year_4hour N_4837           1.15     42.01501 395.4949 4.786688327789 0                        
;FOUND
S41751           USACE_5year_4hour N_4175           1.45     32.68795 381.717  3.323766231537 0                        
;FOUND
S41752           USACE_5year_4hour N_4175           3.86     46.47264 310.4289 3.661818742752 0                        
;FOUND
S4574            USACE_5year_4hour N_4574           4.15     88.99234 457.42   3.545626163483 0                        
;FOUND
S41761           USACE_5year_4hour N_4176           6.4      77.27584 228.0837 3.465961933136 0                        
;FOUND
S45371           USACE_5year_4hour N_4537           2.16     87.75224 306.9787 3.391953229904 0                        
;FOUND
S4538            USACE_5year_4hour N_4538           10.35    48.09679 368.3343 3.051795959473 0                        
;FOUND
S45372           USACE_5year_4hour N_4537           3.81     47.77413 392.9661 4.043159008026 0                        
;FOUND
S45411           USACE_5year_4hour N_4541           1.73     28.2302  214.4855 3.624282121658 0                        
;FOUND
S4540            USACE_5year_4hour N_4540           0.57     36.93801 87.5319  2.933789491653 0                        
;FOUND
S4539            USACE_5year_4hour N_4539           2.88     43.22098 216.9582 3.022823095322 0                        
;FOUND
S4542            USACE_5year_4hour N_4542           2.95     95.841   270.3768 3.682971715927 0                        
;FOUND
S45412           USACE_5year_4hour N_4541           1.46     75.16159 540.0431 5.217607498169 0                        
;FOUND
S49451           USACE_5year_4hour N_4945           2.15     89.60258 190.0874 3.416737794876 0                        
;FOUND
S3983            USACE_5year_4hour N_3983           1.41     0.9671   823.7504 19.90816497803 0                        
;FOUND
S4003            USACE_5year_4hour N_4003           4.26     14.04945 1156.8281 5.781422615051 0                        
;FOUND
S3942            USACE_5year_4hour N_3942           1.29     9.16581  265.5316 5.709750175476 0                        
;FOUND
S4190            USACE_5year_4hour N_4190           1.91     31.30912 257.4342 3.380124330521 0                        
;FOUND
S4192            USACE_5year_4hour N_4192           5.31     3.7484   482.0689 5.152754306793 0                        
;FOUND
S4194            USACE_5year_4hour N_4194           8.93     8.11592  948.1515 6.883531093597 0                        
;FOUND
S4580            USACE_5year_4hour N_4580           3.23     11.31368 1974.4825 9.320134162903 0                        
;FOUND
S3939            USACE_5year_4hour N_3939           8.05     0.70185  172.1375 5.859704494476 0                        
;FOUND
S41081           USACE_5year_4hour N_4108           8.68     14.51699 339.9611 11.58608436584 0                        
;FOUND
S4110            USACE_5year_4hour N_4110           11.07    6.03114  619.5189 8.069617271423 0                        
;FOUND
S4104            USACE_5year_4hour N_4104           12.4     12.13609 652.8885 10.85379981995 0                        
;FOUND
S39691           USACE_5year_4hour N_3969           2.92     2.99096  187.3908 14.52421092987 0                        
;FOUND
S4101            USACE_5year_4hour N_4101           53.36    11.08005 865.9524 8.875058174133 0                        
;FOUND
S3966            USACE_5year_4hour N_3966           3.96     10.08738 221.1851 11.44810199738 0                        
;FOUND
S4355            USACE_5year_4hour N_4355           3.91     6.65875  310.0702 16.64286994934 0                        
;FOUND
S4076            USACE_5year_4hour N_4076           4.32     3.23327  333.96   18.14090156555 0                        
;FOUND
S5030            USACE_5year_4hour N_5030           9.61     12.33526 863.7411 13.82706356049 0                        
;FOUND
S43401           USACE_5year_4hour N_4340           8.21     18.24615 667.0591 8.798283576965 0                        
;FOUND
S43411           USACE_5year_4hour N_4341           5.39     7.34669  917.9764 6.115275382996 0                        
;FOUND
S43402           USACE_5year_4hour N_4340           3.2      5.64231  281.0493 6.452218055725 0                        
;FOUND
S49641           USACE_5year_4hour N_4964           0.57     16.22722 168.251  6.984200000763 0                        
;FOUND
S41762           USACE_5year_4hour N_4176           8.44     4.13601  313.4767 5.139646530151 0                        
;FOUND
S5120            USACE_5year_4hour N_5120           1.52     21.55783 199.0922 5.486711502075 0                        
;FOUND
S5118            USACE_5year_4hour N_5118           0.15     40.62571 139.3869 7.329646110535 0                        
;FOUND
S4895            USACE_5year_4hour N_4895           15.73    2.09727  455.276  4.295066356659 0                        
;FOUND
S4896            USACE_5year_4hour N_4896           10.31    9.30505  382.4577 3.847551345825 0                        
;FOUND
S4897            USACE_5year_4hour N_4897           2.26     5.61532  202.4099 4.91840171814 0                        
;FOUND
S4899            USACE_5year_4hour N_4899           2.51     5.30449  218.4846 4.17587518692 0                        
;FOUND
S4928            USACE_5year_4hour N_4928           2.12     52.82597 408.0355 2.501252651215 0                        
;FOUND
S4927            USACE_5year_4hour N_4927           1.04     61.01885 310.446  4.613806724548 0                        
;FOUND
S4925            USACE_5year_4hour N_4925           0.78     67.75864 236.7484 4.043058872223 0                        
;FOUND
S4923            USACE_5year_4hour N_4923           0.95     39.28857 242.8041 4.373781681061 0                        
;FOUND
S4921            USACE_5year_4hour N_4921           1.22     30.17343 178.0231 4.324903011322 0                        
;FOUND
S4956            USACE_5year_4hour N_4956           6.95     43.54184 613.311  3.30812048912 0                        
;FOUND
S49531           USACE_5year_4hour N_4953           2.42     1.55805  204.3348 3.729344367981 0                        
;FOUND
S4950            USACE_5year_4hour N_4950           2.99     8.64754  324.6093 4.470098495483 0                        
;FOUND
S4947            USACE_5year_4hour N_4947           3.15     2.0473   244.0479 4.086397171021 0                        
;FOUND
S49452           USACE_5year_4hour N_4945           12.48    0        736.8705 5.577963352203 0                        
;FOUND
S49532           USACE_5year_4hour N_4953           23.33    4.43575  849.2566 5.550263404846 0                        
;FOUND
S4493            USACE_5year_4hour N_4493           0.69     50.17386 272.6572 5.997169971466 0                        
;FOUND
S41551           USACE_5year_4hour N_4155           1.96     56.94237 522.0032 7.261755466461 0                        
;FOUND
S4786            USACE_5year_4hour N_4786           8.32     2.98908  436.3523 5.275466918945 0                        
;FOUND
S4787            USACE_5year_4hour N_4787           9.78     2.86216  494.5277 5.39906835556 0                        
;FOUND
S4785            USACE_5year_4hour N_4785           6.38     0.46157  350.617  4.158716678619 0                        
;FOUND
S41552           USACE_5year_4hour N_4155           8.05     7.10222  331.0121 3.380415439606 0                        
;FOUND
S4502            USACE_5year_4hour N_4502           8.04     10.91772 310.0327 5.697850227356 0                        
;FOUND
S48061           USACE_5year_4hour N_4806           30.98    2.41862  2081.2328 12.18291282654 0                        
;FOUND
S48062           USACE_5year_4hour N_4806           42.63    4.1541   1020.4474 5.679627895355 0                        
;FOUND
S4817            USACE_5year_4hour N_4817           14.18    6.2764   696.818  8.078393936157 0                        
;FOUND
S4760            USACE_5year_4hour N_4760           5.28     15.37059 314.0567 4.769865512848 0                        
;FOUND
S47581           USACE_5year_4hour N_4758           1.7      65.51709 193.0162 5.32639503479 0                        
;FOUND
S41541           USACE_5year_4hour N_4154           0.95     25.01446 116.2599 3.374710559845 0                        
;FOUND
S41542           USACE_5year_4hour N_4154           7.62     59.86895 465.8618 3.395100593567 0                        
;FOUND
S39771           USACE_5year_4hour N_3977           1.02     10.94805 176.6235 2.866260290146 0                        
;FOUND
S3975            USACE_5year_4hour N_3975           14.55    7.07912  423.2358 2.772389173508 0                        
;FOUND
S41421           USACE_5year_4hour N_4142           1.19     18.86613 123.2325 3.739513158798 0                        
;FOUND
S4141            USACE_5year_4hour N_4141           2.06     8.81859  163.2497 3.470800638199 0                        
;FOUND
S41391           USACE_5year_4hour N_4139           3.93     5.36241  219.717  3.046901702881 0                        
;FOUND
S4138            USACE_5year_4hour N_4138           3.07     4.72421  147.4183 2.705814123154 0                        
;FOUND
S4137            USACE_5year_4hour N_4137           3.21     3.32465  175.1951 2.470538139343 0                        
;FOUND
S39741           USACE_5year_4hour N_3974           4.11     8.6065   195.0339 2.807146549225 0                        
;FOUND
S45413           USACE_5year_4hour N_4541           0.71     51.70779 310.5634 4.626401424408 0                        
;FOUND
S4092            USACE_5year_4hour N_4092           3.02     64.28267 703.5243 4.39252281189 0                        
;FOUND
S4091            USACE_5year_4hour N_4091           3.27     60.08008 931.3492 4.522356033325 0                        
;FOUND
S4090            USACE_5year_4hour N_4090           2.75     67.1702  600.8465 4.635264396667 0                        
;FOUND
S40893           USACE_5year_4hour N_4089           3.32     55.79693 498.8241 4.625412464142 0                        
;FOUND
S40894           USACE_5year_4hour N_4089           1.81     64.32262 702.0894 4.550445556641 0                        
;FOUND
S40871           USACE_5year_4hour N_4087           1.56     62.3143  386.5361 3.536128044128 0                        
;FOUND
S4088            USACE_5year_4hour N_4088           1.82     52.51908 371.5513 4.141448020935 0                        
;FOUND
S44051           USACE_5year_4hour N_4405           2.47     57.31981 643.185  3.371958017349 0                        
;FOUND
S39742           USACE_5year_4hour N_3974           0.38     68.86773 148.7414 3.477658748627 0                        
;FOUND
S40872           USACE_5year_4hour N_4087           1.05     64.57098 230.9529 3.434856653214 0                        
;FOUND
S40873           USACE_5year_4hour N_4087           2.06     82.22541 312.2176 3.095899343491 0                        
;FOUND
S4459            USACE_5year_4hour N_4459           9.21     27.39614 478.8293 3.067501544952 0                        
;FOUND
S41071           USACE_5year_4hour N_4107           3.24     26.16379 299.5783 3.512757301331 0                        
;FOUND
S4127            USACE_5year_4hour N_4127           3.14     34.73625 306.3674 4.040445804596 0                        
;FOUND
S4447            USACE_5year_4hour N_4447           2.73     18.68175 215.3283 4.201274871826 0                        
;FOUND
S41051           USACE_5year_4hour N_4105           3.85     26.92916 265.94   4.06257724762 0                        
;FOUND
S41241           USACE_5year_4hour N_4124           3.9      35.08013 255.0712 4.064067363739 0                        
;FOUND
S4962            USACE_5year_4hour N_4962           1.94     22.99573 1356.0083 9.434336662292 0                        
;FOUND
S4201            USACE_5year_4hour N_4201           10.57    3.87215  450.8956 5.690249443054 0                        
;FOUND
S43412           USACE_5year_4hour N_4341           3.31     57.94643 1522.7675 4.170575141907 0                        
;FOUND
S4200            USACE_5year_4hour N_4200           1.29     37.87846 405.1469 3.887953996658 0                        
;FOUND
S41422           USACE_5year_4hour N_4142           7.47     46.92655 425.6379 3.693407535553 0                        
;FOUND
S41242           USACE_5year_4hour N_4124           3.51     38.24679 191.4437 5.003918647766 0                        
;FOUND
S41243           USACE_5year_4hour N_4124           5.84     31.57144 320.9418 5.20324420929 0                        
;FOUND
S41392           USACE_5year_4hour N_4139           6.1      41.52487 520.1813 5.426902770996 0                        
;FOUND
S39692           USACE_5year_4hour N_3969           9.24     43.94943 318.7042 4.754865169525 0                        
;FOUND
S39721           USACE_5year_4hour N_3972           9.35     40.07422 308.6424 4.628262519836 0                        
;FOUND
S39722           USACE_5year_4hour N_3972           8.35     21.75526 299.4981 4.9066157341 0                        
;FOUND
S39743           USACE_5year_4hour N_3974           7.75     36.11867 314.9703 4.417133808136 0                        
;FOUND
S40874           USACE_5year_4hour N_4087           2.21     36.97298 417.0287 5.300113201141 0                        
;FOUND
S39744           USACE_5year_4hour N_3974           1.95     29.38778 1214.1132 4.706352710724 0                        
;FOUND
S40801           USACE_5year_4hour N_4080           4.42     52.57788 2598.7857 4.58394908905 0                        
;FOUND
S4353            USACE_5year_4hour N_4353           2.77     49.96113 1295.717 5.426075458527 0                        
;FOUND
S40861           USACE_5year_4hour N_4086           5.51     47.44442 1539.2832 5.315132141113 0                        
;FOUND
S40862           USACE_5year_4hour N_4086           4.33     40.171   2671.2489 5.779919147491 0                        
;FOUND
S40841           USACE_5year_4hour N_4084           3.78     55.97639 1595.3336 5.187819480896 0                        
;FOUND
S40842           USACE_5year_4hour N_4084           4.51     35.84282 1486.5873 5.012403488159 0                        
;FOUND
S40811           USACE_5year_4hour N_4081           3.73     55.59112 2061.0897 4.535256385803 0                        
;FOUND
S4079            USACE_5year_4hour N_4079           8.04     11.51117 369.9357 3.546612977982 0                        
;FOUND
S43501           USACE_5year_4hour N_4350           8.86     23.41372 370.2933 3.670920372009 0                        
;FOUND
S4073            USACE_5year_4hour N_4073           2.73     39.56886 1032.719 4.618102550507 0                        
;FOUND
S43502           USACE_5year_4hour N_4350           4.82     51.44185 1842.0805 4.673498630524 0                        
;FOUND
S40711           USACE_5year_4hour N_4071           4.62     62.34009 1780.949 4.724252700806 0                        
;FOUND
S4333            USACE_5year_4hour N_4333           16.66    55.15514 1370.5576 3.966501235962 0                        
;FOUND
S43361           USACE_5year_4hour N_4336           6.43     35.16382 1366.905 4.0710105896 0                        
;FOUND
S47171           USACE_5year_4hour N_4717           9.89     59.28755 882.8358 4.870210647583 0                        
;FOUND
S47172           USACE_5year_4hour N_4717           5.02     33.42165 1415.3486 5.093822479248 0                        
;FOUND
S43362           USACE_5year_4hour N_4336           13.37    32.95871 2218.6801 4.732096195221 0                        
S4049            USACE_5year_4hour N_4049           0.88     52.57753 228.4296 4.376989364624 0                        
;FOUND
S4047            USACE_5year_4hour N_4047           4.96     21.28333 943.3417 5.305850505829 0                        
;FOUND
S40641           USACE_5year_4hour N_4064           5.35     36.66865 539.641  4.601515293121 0                        
;FOUND
S40631           USACE_5year_4hour N_4063           7.11     28.57284 409.9046 5.120027065277 0                        
;FOUND
S45291           USACE_5year_4hour N_4529           1.63     50.49634 471.5455 6.236007213593 0                        
;FOUND
S4383            USACE_5year_4hour N_4383           1.31     58.43741 210.726  5.779496669769 0                        
;FOUND
S4085            USACE_5year_4hour N_4085           1.58     52.23197 691.0831 4.787613391876 0                        
;FOUND
S4795            USACE_5year_4hour N_4795           46.93    45.992   1134.2456 4.011101722717 0                        
;FOUND
S4820            USACE_5year_4hour N_4820           21.18    86.7413  859.6121 4.163222312927 0                        
;FOUND
S5067            USACE_5year_4hour N_5067           49.81    12.30901 933.7285 5.377244949341 0                        
;FOUND
S5069            USACE_5year_4hour N_5069           17.67    0        611.3611 17.9331741333 0                        
;FOUND
S48063           USACE_5year_4hour N_4806           7.42     21.41515 930.6947 8.571944236755 0                        
;FOUND
S4516            USACE_5year_4hour N_4516           20.65    6.38766  582.8176 6.066260814667 0                        
;FOUND
S4162            USACE_5year_4hour N_4162           34.79    6.49173  898.3898 4.140568733215 0                        
;FOUND
S4163            USACE_5year_4hour N_4163           5.56     28.01195 1083.5645 8.017758369446 0                        
;FOUND
S5043            USACE_5year_4hour N_5043           4.73     76.74405 1548.6125 4.830832481384 0                        
;FOUND
S4793            USACE_5year_4hour N_4793           5.09     12.34473 373.3938 3.79354095459 0                        
;FOUND
S4156            USACE_5year_4hour N_4156           1.35     27.04858 150.1931 5.794893264771 0                        
;FOUND
S4158            USACE_5year_4hour N_4158           6.37     9.50077  391.9441 5.478143692017 0                        
;FOUND
S4159            USACE_5year_4hour N_4159           36.87    21.08575 1335.8358 4.220601558685 0                        
;FOUND
S4725            USACE_5year_4hour N_4725           15.17    2.60031  506.6569 8.572070121765 0                        
;FOUND
S4789            USACE_5year_4hour N_4789           18.45    9.49794  1105.7425 5.908602714539 0                        
;FOUND
S5169            USACE_5year_4hour N_5169           33.64    3.43699  1515.2196 5.649456501007 0                        
;FOUND
S41553           USACE_5year_4hour N_4155           3.28     48.19109 483.0484 4.729062080383 0                        
;FOUND
S4936            USACE_5year_4hour N_4936           6.27     38.95112 557.0339 4.173585891724 0                        
;FOUND
S41052           USACE_5year_4hour N_4105           8.67     4.46821  416.3255 9.143201828003 0                        
;FOUND
S4106            USACE_5year_4hour N_4106           5.88     4.08425  303.5636 9.369549751282 0                        
;FOUND
S41072           USACE_5year_4hour N_4107           9.25     4.49247  498.7816 10.61919593811 0                        
;FOUND
S41082           USACE_5year_4hour N_4108           2.71     19.12384 312.7247 3.891419410706 0                        
;FOUND
S41083           USACE_5year_4hour N_4108           1.83     7.68713  239.0229 20.07424926758 0                        
;FOUND
S39772           USACE_5year_4hour N_3977           3.07     16.7212  443.2098 3.644693136215 0                        
;FOUND
S47582           USACE_5year_4hour N_4758           4.92     3.8603   418.4807 3.709571838379 0                        
;FOUND
S4146            USACE_5year_4hour N_4146           8.72     44.11425 490.5375 2.868814468384 0                        
;FOUND
S44052           USACE_5year_4hour N_4405           4.91     38.13191 347.6679 4.154797077179 0                        
;Road_Paved_GLNHWY
S49691           USACE_5year_4hour N_4969           1.1      59.55217 1064.8   4.756357192993 0                        
;Road_Paved_GLNHWY
S45871           USACE_5year_4hour N_4587           1        60.16577 968      4.766176223755 0                        
;Road_Paved_GLNHWY
S47261           USACE_5year_4hour N_4726           0.89     88.29644 861.52   4.553122997284 0                        
;Road_Paved_GLNHWY
S45872           USACE_5year_4hour N_4587           0.8      68.11405 774.4    4.920321464539 0                        
;Road_Paved_GLNHWY
S47271           USACE_5year_4hour N_4727           0.68     90.54574 667.92   4.41185092926 0                        
;Road_Paved_GLNHWY
S47272           USACE_5year_4hour N_4727           0.64     66.73655 609.84   5.504566669464 0                        
;Road_Paved_GLNHWY
S47273           USACE_5year_4hour N_4727           1.22     97.8531  1161.6   3.840467214584 0                        
;Road_Paved_GLNHWY
S47274           USACE_5year_4hour N_4727           1.24     58.40366 1200.32  4.233011245728 0                        
;Road_Paved_GLNHWY
S4728            USACE_5year_4hour N_4728           0.72     96.4115  696.96   4.805200576782 0                        
;Road_Paved_GLNHWY
S47275           USACE_5year_4hour N_4727           0.72     56.75944 706.64   4.874265670776 0                        
;Road_Paved_GLNHWY
S4509            USACE_5year_4hour N_4509           1.34     95.67672 1306.8   4.985543251038 0                        
;Road_Paved_GLNHWY
S45841           USACE_5year_4hour N_4584           1.18     91.84648 716.5165 4.83760881424 0                        
;Road_Paved_GLNHWY
S4510            USACE_5year_4hour N_4510           1.34     70.20894 1297.12  4.774770259857 0                        
;Road_Paved_GLNHWY
S45081           USACE_5year_4hour N_4508           2.03     97.16564 1955.36  4.324162006378 0                        
;Road_Paved_GLNHWY
S52051           USACE_5year_4hour N_5205           2.05     66.95159 294.7894 4.395277023315 0                        
;Road_Paved_GLNHWY
S52052           USACE_5year_4hour N_5205           0.45     48.73285 425.92   6.353792190552 0                        
;Road_Paved_GLNHWY
S45082           USACE_5year_4hour N_4508           0.7      99.09547 50.4723  7.397175788879 0                        
;Road_Paved_GLNHWY
S51701           USACE_5year_4hour N_5170           0.8      92.13857 774.4    4.577000141144 0                        
;Road_Paved_GLNHWY
S52053           USACE_5year_4hour N_5205           0.76     73.77221 735.68   4.374050140381 0                        
;Road_Paved_GLNHWY
S50571           USACE_5year_4hour N_5057           0.45     99.38948 435.6    10.29929637909 0                        
;Road_Paved_GLNHWY
S5204            USACE_5year_4hour N_5204           0.38     51.0791  367.84   6.695543289185 0                        
;Road_Paved_GLNHWY
S48081           USACE_5year_4hour N_4808           1.35     99.57992 529.9634 3.920913934708 0                        
;Road_Paved_GLNHWY
S45842           USACE_5year_4hour N_4584           0.47     86.45022 445.28   4.884701251984 0                        
;Road_Paved_GLNHWY
S51702           USACE_5year_4hour N_5170           1.46     80.6522  233.0938 4.191949367523 0                        
;Road_Paved_GLNHWY
S48082           USACE_5year_4hour N_4808           1.35     92.48616 231.2223 5.926539897919 0                        
;Road_Paved_GLNHWY
S51703           USACE_5year_4hour N_5170           1.38     69.5327  171.7594 5.450497150421 0                        
;Road_Paved_GLNHWY