[TITLE]
;;Project Title/Notes

[OPTIONS]
;;Option             Value
FLOW_UNITS           GPM
INFILTRATION         HORTON
FLOW_ROUTING         DYNWAVE
LINK_OFFSETS         DEPTH
MIN_SLOPE            0
ALLOW_PONDING        YES
SKIP_STEADY_STATE    NO

START_DATE           07/01/2008
START_TIME           00:00:00
REPORT_START_DATE    07/01/2008
REPORT_START_TIME    00:00:00
END_DATE             07/02/2008
END_TIME             23:00:00
SWEEP_START          01/01
SWEEP_END            12/31
DRY_DAYS             5.000000
REPORT_STEP          01:00:00
WET_STEP             01:00:00
DRY_STEP             23:00:00
ROUTING_STEP         0:00:09 

INERTIAL_DAMPING     NONE
NORMAL_FLOW_LIMITED  SLOPE
FORCE_MAIN_EQUATION  H-W
VARIABLE_STEP        0.60
LENGTHENING_STEP     10
MIN_SURFAREA         0
MAX_TRIALS           0
HEAD_TOLERANCE       0
SYS_FLOW_TOL         5
LAT_FLOW_TOL         5
MINIMUM_STEP         0.5
THREADS              1

[FILES]
;;Interfacing Files
SAVE HOTSTART "C:\TEMP\HS.HSF"

[EVAPORATION]
;;Data Source    Parameters
;;-------------- ----------------
CONSTANT         0.0
DRY_ONLY         NO

[JUNCTIONS]
;;Name           Elevation  MaxDepth   InitDepth  SurDepth   Aponded   
;;-------------- ---------- ---------- ---------- ---------- ----------
; 12"PLUG
SEND1            61.000000  4.000000   0.000000   0.000000   0.000000  
SEND10           31.000000  4.000000   0.170000   1000.000000 0.000000  
; 2" PLUG
SEND11           21.000000  4.000000   0.000000   1000.000000 0.000000  
; FLUSHING HYDRANT
SEND12           81.000000  4.000000   0.000000   1000.000000 0.000000  
; 2" CAP
SEND13           66.157739  4.000000   0.000000   1000.000000 0.000000  
; 12" CAPPED END
SEND3            41.000000  4.000000   0.000000   1000.000000 0.000000  
SEND4            41.000000  4.000000   0.000000   1000.000000 0.000000  
SEND5            41.000000  4.000000   0.000000   1000.000000 0.000000  
SEND6            16.151938  4.000000   0.000000   1000.000000 0.000000  
SEND7            27.329134  4.000000   0.000000   1000.000000 0.000000  
SEND8            66.000000  4.000000   0.000000   1000.000000 0.000000  
SEND9            31.000000  4.000000   0.000000   1000.000000 0.000000  
; 2"GV
SFL1             76.000000  4.000000   0.000000   1000.000000 0.000000  
SFL2             21.000000  4.000000   0.000000   1000.000000 0.000000  
; 6" PLUG w/ 2" TAP
SFL3             21.000000  4.000000   0.000000   1000.000000 0.000000  
; MANHOLE
SMH1330          75.595547  4.000000   0.330000   0.000000   0.000000  
; SAN. MH.
SMH1653          56.849551  4.000000   0.000000   0.000000   0.000000  
SMH1696          76.000000  4.000000   0.000000   0.000000   0.000000  
SMH1731          51.000000  4.000000   0.000000   0.000000   0.000000  
SMH2033          43.919681  4.000000   0.000000   1000.000000 0.000000  
SMH2102          12.341033  4.000000   0.000000   1000.000000 0.000000  
SMH2386          66.000000  4.000000   0.000000   1000.000000 0.000000  
; VALVE VAULT
SPJ106           42.094854  4.000000   0.000000   1000.000000 0.000000  
SPJ112           6.000000   4.000000   0.000000   1000.000000 0.000000  
; VALVE VAULT
SPJ113           61.000000  4.000000   0.000000   1000.000000 0.000000  
; VALVE VAULT
SPJ116           75.000000  4.000000   0.330000   1000.000000 0.000000  
; VALVE VAULT
SPJ117           76.000000  4.000000   0.000000   1000.000000 0.000000  
; VALVE VAULT
SPJ118           61.000000  4.000000   0.000000   1000.000000 0.000000  
; VALVE VAULT
SPJ119           76.000000  4.000000   0.000000   1000.000000 0.000000  
; VALVE VAULT
SPJ120           77.403154  4.000000   0.000000   1000.000000 0.000000  
; VALVE VAULT
SPJ121           78.800000  4.000000   0.330000   1000.000000 0.000000  
; VALVE VAULT
SPJ136           69.500000  4.000000   0.000000   1000.000000 0.000000  
; VALVE VAULT
SPJ137           62.805702  4.000000   0.000000   1000.000000 0.000000  
; VALVE VAULT
SPJ147           70.000000  4.000000   0.000000   1000.000000 0.000000  
; VALVE VAULT
SPJ148           55.575966  4.000000   0.000000   1000.000000 0.000000  
; VALVE VAULT
SPJ149           61.000000  4.000000   0.330000   1000.000000 0.000000  
; VALVE VAULT
SPJ15            21.000000  4.000000   0.000000   1000.000000 0.000000  
; VALVE VAULT
SPJ152           21.000000  4.000000   0.000000   1000.000000 0.000000  
; VALVE VAULT
SPJ20            26.000000  4.000000   0.000000   1000.000000 0.000000  
; VALVE VAULT
SPJ5             41.000000  4.000000   0.000000   1000.000000 0.000000  
; 16"x 12" REDUCER
SRED1            61.000000  4.000000   0.000000   1000.000000 0.000000  
; 6"x4" REDUCER
SRED10           68.030809  4.000000   0.000000   1000.000000 0.000000  
; 12" x 10" REDUCER
SRED11           46.590717  4.000000   0.000000   1000.000000 0.000000  
; 10" x 8" REDUCER
SRED12           47.884991  4.000000   0.000000   1000.000000 0.000000  
SRED13           41.000000  4.000000   0.000000   1000.000000 0.000000  
; 12"x 8" REDUCER
SRED14           18.871082  4.000000   0.000000   1000.000000 0.000000  
; 8"x 6" REDUCER
SRED15           21.000000  4.000000   0.000000   1000.000000 0.000000  
; 8"x 4" REDUCER
SRED16           41.447340  4.000000   0.500000   1000.000000 0.000000  
; 8"x 4" REDUCER
SRED17           21.000000  4.000000   0.000000   1000.000000 0.000000  
; 30"x 24" REDUCER
SRED18           45.818327  4.000000   0.000000   1000.000000 0.000000  
; 30" x 12" REDUCER
SRED19           45.529991  4.000000   0.000000   1000.000000 0.000000  
; 12"x 8" REDUCER
SRED2            63.608572  4.000000   0.000000   1000.000000 0.000000  
; 24"x 16" REDUCER
SRED20           41.000000  4.000000   0.000000   1000.000000 0.000000  
; 6" x 4"  REDUCER
SRED3            45.413895  4.000000   0.000000   1000.000000 0.000000  
; 20"x16"RED
SRED4            32.279152  4.000000   0.000000   1000.000000 0.000000  
; 20"x16"REDUCER
SRED5            27.417325  4.000000   0.000000   1000.000000 0.000000  
; 20"x16" REDUCER
SRED6            31.000000  4.000000   0.000000   1000.000000 0.000000  
; 20"x 16" REDUCER
SRED7            28.572963  4.000000   0.000000   1000.000000 0.000000  
; 10"x 8"REDUCER
SRED8            76.000000  4.000000   0.000000   1000.000000 0.000000  
; 12"x10" REDUCER
SRED9            76.000000  4.000000   0.000000   1000.000000 0.000000  
; 12"x 8"TEE
STTC1            62.492924  4.000000   0.000000   1000.000000 0.000000  
; 12"x 4" TEE
STTC10           77.000000  4.000000   0.000000   1000.000000 0.000000  
; 6" TEE
STTC11           76.000000  4.000000   0.000000   1000.000000 0.000000  
; 10"x4" TEE
STTC12           76.000000  4.000000   0.000000   1000.000000 0.000000  
; 12"X4" TEE
STTC13           76.000000  4.000000   0.000000   1000.000000 0.000000  
; 10"x 4" TEE
STTC14           76.000000  4.000000   0.000000   1000.000000 0.000000  
; 8"x 6" TEE
STTC15           68.371333  4.000000   0.000000   1000.000000 0.000000  
; 24"X 8" Tee
STTC16           45.021924  4.000000   0.000000   1000.000000 0.000000  
; 8" TEE
STTC17           45.968710  4.000000   0.000000   1000.000000 0.000000  
; 12"x 8" TEE
STTC18           41.000000  4.000000   0.000000   1000.000000 0.000000  
STTC19           41.000000  4.000000   0.000000   1000.000000 0.000000  
; 12"x 2" TAP
STTC2            81.000000  4.000000   0.000000   1000.000000 0.000000  
; 12" x 10" TEE
STTC20           45.761653  4.000000   0.000000   1000.000000 0.000000  
; 10" TEE
STTC21           47.804355  4.000000   0.000000   1000.000000 0.000000  
STTC22           34.359772  4.000000   0.000000   1000.000000 0.000000  
STTC23           41.000000  4.000000   0.000000   1000.000000 0.000000  
STTC24           16.016935  4.000000   0.000000   1000.000000 0.000000  
; 8" TEE
STTC25           21.000000  4.000000   0.000000   1000.000000 0.000000  
; 8" TEE
STTC26           41.035303  4.000000   0.670000   1000.000000 0.000000  
; 4" TEE
STTC28           42.166400  4.000000   0.000000   1000.000000 0.000000  
; 8"x 4" TEE
STTC29           31.000000  4.000000   0.000000   1000.000000 0.000000  
; 16"x 12" TEE
STTC3            61.000000  4.000000   0.000000   1000.000000 0.000000  
; 8"x 2" TAP
STTC30           31.000000  4.000000   0.670000   1000.000000 0.000000  
; 10" x 8" TAP SADDLE
STTC31           62.753632  4.000000   0.000000   1000.000000 0.000000  
; 10"x 8" TEE
STTC32           31.000000  4.000000   0.000000   1000.000000 0.000000  
; 8" TEE
STTC33           21.000000  4.000000   0.000000   1000.000000 0.000000  
; 30" TEE
STTC34           45.683783  4.000000   0.000000   1000.000000 0.000000  
; 12" TEE
STTC35           40.401686  4.000000   0.000000   1000.000000 0.000000  
; 12"x 2" TAP
STTC4            66.275112  4.000000   0.000000   1000.000000 0.000000  
; 16"x 12" TEE
STTC5            62.079158  4.000000   0.000000   1000.000000 0.000000  
; 16" x 6" TEE
STTC6            45.702794  4.000000   0.000000   1000.000000 0.000000  
; 2" TAP
STTC7            40.293865  4.000000   0.000000   1000.000000 0.000000  
; 16" x10" TAP SADDLE
STTC8            61.000000  4.000000   0.000000   1000.000000 0.000000  
; 12"x6"TEE
STTC9            76.000000  4.000000   0.000000   1000.000000 0.000000  
; 12" G.V.
SVAL102          81.000000  4.000000   0.000000   1000.000000 0.000000  
; 8"GV
SVAL103          62.698222  4.000000   0.000000   1000.000000 0.000000  
; 12"GV
SVAL104          71.000000  4.000000   0.000000   1000.000000 0.000000  
; 12"GV
SVAL105          81.000000  4.000000   0.000000   1000.000000 0.000000  
; 12"GV
SVAL106          81.000000  4.000000   0.000000   1000.000000 0.000000  
; 12"GV
SVAL107          61.000000  4.000000   0.000000   1000.000000 0.000000  
; 12"GV
SVAL108          71.000000  4.000000   0.000000   1000.000000 0.000000  
; 12"GV
SVAL109          67.165754  4.000000   0.000000   1000.000000 0.000000  
; 12"GV
SVAL110          61.000000  4.000000   0.000000   1000.000000 0.000000  
; 12"GV
SVAL111          61.000000  4.000000   0.000000   0.000000   0.000000  
; 2" GV
SVAL112          66.226746  4.000000   0.000000   1000.000000 0.000000  
; 16" GV
SVAL113          63.811138  4.000000   0.000000   1000.000000 0.000000  
; 8" GV
SVAL114          63.204276  4.000000   0.000000   1000.000000 0.000000  
; 12" GV
SVAL115          63.000000  4.000000   0.000000   1000.000000 0.000000  
; 16" GV
SVAL116          31.000000  4.000000   0.000000   1000.000000 0.000000  
; 16" GV
SVAL117          29.500000  4.000000   0.000000   1000.000000 0.000000  
; 16" GV
SVAL118          41.000000  4.000000   0.000000   1000.000000 0.000000  
; 10" G.V.
SVAL119          61.000000  4.000000   0.000000   1000.000000 0.000000  
; 16" GV
SVAL120          31.000000  4.000000   0.000000   1000.000000 0.000000  
; 6"GV
SVAL121          76.000000  4.000000   0.000000   1000.000000 0.000000  
; 4"GV
SVAL122          77.300000  4.000000   0.330000   1000.000000 0.000000  
; 12"GV
SVAL123          76.000000  4.000000   0.000000   1000.000000 0.000000  
; 6"GV
SVAL124          76.000000  4.000000   0.000000   1000.000000 0.000000  
; 10"GV
SVAL125          76.000000  4.000000   0.000000   1000.000000 0.000000  
; 4"GV
SVAL126          76.000000  4.000000   0.000000   1000.000000 0.000000  
; 4"GV
SVAL127          61.000000  4.000000   0.000000   1000.000000 0.000000  
; 10"GV
SVAL128          76.000000  4.000000   0.000000   1000.000000 0.000000  
; 4"GV
SVAL129          76.000000  4.000000   0.000000   1000.000000 0.000000  
; 4"GV
SVAL130          76.000000  4.000000   0.000000   1000.000000 0.000000  
; 8"GV
SVAL131          76.000000  4.000000   0.000000   1000.000000 0.000000  
; 6"GV
SVAL132          68.271737  4.000000   0.000000   1000.000000 0.000000  
; 8"GV
SVAL133          66.877821  4.000000   0.000000   1000.000000 0.000000  
; 4" G.V.
SVAL134          45.157152  4.000000   0.000000   1000.000000 0.000000  
; 16"GV
SVAL135          42.777868  4.000000   0.000000   1000.000000 0.000000  
; 4" G.V.
SVAL136          51.000000  4.000000   0.000000   1000.000000 0.000000  
; 8" GV
SVAL137          41.000000  4.000000   0.000000   1000.000000 0.000000  
; 8" GV
SVAL138          45.320190  4.000000   0.000000   1000.000000 0.000000  
; 24" GV
SVAL139          45.247904  4.000000   0.000000   1000.000000 0.000000  
; 4" G.V.
SVAL140          55.832704  4.000000   0.000000   0.000000   0.000000  
SVAL141          42.372919  4.000000   0.000000   0.000000   0.000000  
; 4" G.V.
SVAL142          76.000000  4.000000   0.000000   1000.000000 0.000000  
; 8" G.V.
SVAL143          41.000000  4.000000   0.000000   1000.000000 0.000000  
; 12" G.V.
SVAL144          41.000000  4.000000   0.000000   1000.000000 0.000000  
; 12" G.V.
SVAL145          45.886176  4.000000   0.000000   1000.000000 0.000000  
; 10" G.V.
SVAL146          45.560762  4.000000   0.000000   1000.000000 0.000000  
; 12" G.V.
SVAL147          41.000000  4.000000   0.000000   1000.000000 0.000000  
; 10" G.V.
SVAL148          47.824211  4.000000   0.000000   1000.000000 0.000000  
SVAL149          41.000000  4.000000   0.000000   1000.000000 0.000000  
SVAL150          34.342176  4.000000   0.000000   1000.000000 0.000000  
SVAL151          32.385182  4.000000   0.000000   1000.000000 0.000000  
SVAL152          16.098799  4.000000   0.000000   1000.000000 0.000000  
SVAL153          15.867951  4.000000   0.000000   1000.000000 0.000000  
; 6" G.V. & V.B.
SVAL154          21.000000  4.000000   0.000000   1000.000000 0.000000  
; 8" G.V.
SVAL155          31.000000  4.000000   0.670000   1000.000000 0.000000  
; 8" G.V.
SVAL156          40.840520  4.000000   0.670000   1000.000000 0.000000  
; 8" G.V.
SVAL157          41.252915  4.000000   0.670000   1000.000000 0.000000  
; 6" G.V.
SVAL158          21.000000  4.000000   0.000000   1000.000000 0.000000  
; 16" GV
SVAL159          41.000000  4.000000   0.000000   1000.000000 0.000000  
; 16" GV
SVAL160          41.000000  4.000000   0.000000   1000.000000 0.000000  
; 8" G.V.
SVAL161          55.413240  4.000000   0.670000   1000.000000 0.000000  
; 8" G.V.
SVAL162          31.000000  4.000000   0.000000   1000.000000 0.000000  
; 4" G.V.
SVAL163          31.000000  4.000000   0.330000   1000.000000 0.000000  
; 8" G.V.
SVAL164          31.000000  4.000000   0.670000   1000.000000 0.000000  
; 2" G.V.
SVAL165          31.000000  4.000000   0.170000   1000.000000 0.000000  
; 10" G.V.
SVAL166          63.245744  4.000000   0.000000   1000.000000 0.000000  
; 10" G.V.
SVAL167          63.083533  4.000000   0.000000   1000.000000 0.000000  
; 8" G.V.
SVAL168          62.675940  4.000000   0.000000   1000.000000 0.000000  
; 10" G.V.
SVAL169          59.497451  4.000000   0.000000   1000.000000 0.000000  
; 10" G.V.
SVAL170          62.141702  4.000000   0.000000   1000.000000 0.000000  
; 10" G.V.
SVAL171          41.000000  4.000000   0.000000   1000.000000 0.000000  
; 10" G.V.
SVAL172          50.449917  4.000000   0.000000   1000.000000 0.000000  
; 10" G.V.
SVAL173          41.000000  4.000000   0.000000   1000.000000 0.000000  
; 10: G.V.
SVAL174          21.000000  4.000000   0.000000   1000.000000 0.000000  
; 10" G.V.
SVAL175          21.000000  4.000000   0.000000   1000.000000 0.000000  
; 10" G.V.
SVAL176          31.000000  4.000000   0.000000   1000.000000 0.000000  
; 10" G.V.
SVAL177          51.000000  4.000000   0.000000   1000.000000 0.000000  
; 8" G.V.
SVAL178          31.000000  4.000000   0.000000   1000.000000 0.000000  
; 8" G.V.
SVAL179          21.000000  4.000000   0.000000   1000.000000 0.000000  
; 8" G.V.
SVAL180          54.827014  4.000000   0.000000   1000.000000 0.000000  
; 8" G.V.
SVAL181          48.195300  4.000000   0.000000   1000.000000 0.000000  
; 8" G.V.
SVAL182          51.000000  4.000000   0.000000   1000.000000 0.000000  
; 8" G.V.
SVAL183          21.000000  4.000000   0.000000   1000.000000 0.000000  
; 8" GV
SVAL184          21.000000  4.000000   0.000000   1000.000000 0.000000  
; 8" G.V.
SVAL185          41.000000  4.000000   0.000000   1000.000000 0.000000  
; 8" G.V.
SVAL186          21.000000  4.000000   0.000000   1000.000000 0.000000  
; 8" G.V.
SVAL187          41.000000  4.000000   0.000000   1000.000000 0.000000  
; 8" G.V.
SVAL188          21.000000  4.000000   0.000000   1000.000000 0.000000  
; 12" G.V.
SVAL189          40.473222  4.000000   0.000000   1000.000000 0.000000  
; 12" G.V.
SVAL190          30.294914  4.000000   0.000000   1000.000000 0.000000  

[OUTFALLS]
;;Name           Elevation  Type       Stage Data       Gated    Route To        
;;-------------- ---------- ---------- ---------------- -------- ----------------
; INFLUENT STRUCTURE
SINF1            56.670000  FREE                        NO                       

[STORAGE]
;;Name           Elev.    MaxDepth   InitDepth  Shape      Curve Name/Params            N/A      Fevap    Psi      Ksat     IMD     
;;-------------- -------- ---------- ----------- ---------- ---------------------------- -------- --------          -------- --------
; P.S. 106 WETWELL
SWELL106         26.580000 18.010000  5.920000   FUNCTIONAL 0.000000  0.000000  0.000000 28.270000 0.000000
; P.S. 112 WETWELL
SWELL112         -3.580000 22.600000  4.940000   FUNCTIONAL 0.000000  0.000000  0.000000 50.270000 0.000000
; P.S. 113 WETWELL
SWELL113         49.640000 21.360000  5.070000   FUNCTIONAL 0.000000  0.000000  0.000000 50.270000 0.000000
; P.S. 116 WETWELL
SWELL116         60.020000 18.370000  6.810000   FUNCTIONAL 0.000000  0.000000  0.000000 28.270000 0.000000
; P.S. 117 WETWELL
SWELL117         60.940000 21.060000  7.010000   FUNCTIONAL 0.000000  0.000000  0.000000 28.270000 0.000000
; WETWELL 118
SWELL118         59.150000 22.940000  8.070000   FUNCTIONAL 0.000000  0.000000  0.000000 28.270000 0.000000
; P.S. 119
SWELL119         63.830000 21.870000  6.120000   FUNCTIONAL 0.000000  0.000000  0.000000 28.270000 0.000000
; P.S. 120 WETWELL
SWELL120         60.510000 25.200000  5.910000   FUNCTIONAL 0.000000  0.000000  0.000000 28.270000 0.000000
; P.S. 121 WETWELL
SWELL121         63.940000 18.760000  6.080000   FUNCTIONAL 0.000000  0.000000  0.000000 28.270000 0.000000
; P.S. 139 WETWELL
SWELL139         40.400000 27.600000  12.160000  FUNCTIONAL 0.000000  0.000000  0.000000 78.540000 0.000000
; P.S. 15 WETWELL
SWELL15          -5.380000 21.380000  6.650000   FUNCTIONAL 0.000000  0.000000  0.000000 50.270000 0.000000
; P.S. 151 WETWELL
SWELL151         56.410000 19.000000  6.630000   FUNCTIONAL 0.000000  0.000000  0.000000 28.270000 0.000000
; P.S. 152 WETWELL
SWELL152         49.180000 24.840000  6.490000   FUNCTIONAL 0.000000  0.000000  0.000000 50.270000 0.000000
; P.S. 153 WETWELL
SWELL153         38.290000 24.560000  6.700000   FUNCTIONAL 0.000000  0.000000  0.000000 50.270000 0.000000
; P.S. 154 WETWELL
SWELL154         40.940000 17.660000  5.860000   FUNCTIONAL 0.000000  0.000000  0.000000 28.270000 0.000000
; P.S. 157 WETWELL
SWELL157         19.300000 19.780000  7.370000   FUNCTIONAL 0.000000  0.000000  0.000000 50.270000 0.000000
; P.S. 20 WETWELL
SWELL20          12.710000 16.290000  6.760000   FUNCTIONAL 0.000000  0.000000  0.000000 28.270000 0.000000
; P.S.5 WETWELL
SWELL5           30.530000 19.810000  7.340000   FUNCTIONAL 0.000000  0.000000  0.000000 50.270000 0.000000

[CONDUITS]
;;Name           From Node        To Node          Length     Roughness  InOffset   OutOffset  InitFlow   MaxFlow   
;;-------------- ---------------- ---------------- ---------- ---------- ---------- ---------- ---------- ----------
; 2" F.M.
SMAIN1484        SEND11           SFL3             5.376412   0.010000   0.000000   0.000000   0.000000   0.000000  
; 30" F.M.
SMAIN1485        SRED19           STTC34           6.102769   0.010000   0.000000   0.000000   0.000000   0.000000  
SMAIN1486        SRED15           STTC25           6.281967   0.010000   0.000000   0.000000   0.000000   0.000000  
; 2" F.M.
SMAIN1905        SEND13           SVAL112          14.785736  0.010000   0.000000   0.000000   0.000000   0.000000  
; 12"FM
SMAIN1906        STTC4            SVAL110          466.962174 0.010000   0.000000   0.000000   0.000000   0.000000  
SMAIN1907        SVAL116          SRED5            888.895179 0.010000   0.000000   0.000000   0.000000   0.000000  
; 16"FM
SMAIN1908        SRED4            STTC7            1262.382901 0.010000   0.000000   0.000000   0.000000   0.000000  
; 20" HDPE
SMAIN1909        SRED5            SRED4            601.489243 0.010000   0.000000   0.000000   0.000000   0.000000  
; 6' F.M.
SMAIN1910        SVAL121          STTC9            11.046393  0.010000   0.000000   0.000000   0.000000   0.000000  
; 12" F.M.
SMAIN1911        STTC1            SVAL104          834.699021 0.010000   0.000000   0.000000   0.000000   0.000000  
; 6" F.M.
SMAIN1912        SFL1             SVAL124          29.911826  0.010000   0.000000   0.000000   0.000000   0.000000  
; 6" F.M.
SMAIN1913        SPJ117           STTC11           81.174364  0.010000   0.000000   0.000000   0.000000   0.000000  
; 4" F.M.
SMAIN1914        SPJ118           SVAL127          64.051941  0.010000   0.000000   0.000000   0.000000   0.000000  
; 4" F.M.
SMAIN1915        SPJ119           SVAL129          29.670544  0.010000   0.000000   0.000000   0.897000   0.000000  
; 4" F.M.
SMAIN1916        SVAL129          STTC14           10.489808  0.010000   0.000000   0.000000   0.000000   0.000000  
; 4" F.M.
SMAIN1917        SPJ120           SVAL130          167.689206 0.010000   0.000000   0.000000   0.000000   0.000000  
; 8" F.M.
SMAIN1919        SVAL132          STTC15           10.171597  0.010000   0.000000   0.000000   0.000000   0.000000  
; 8" F.M.
SMAIN1920        STTC17           SVAL137          45.729652  0.010000   0.000000   0.000000   0.000000   0.000000  
; 8" F.M.
SMAIN1921        SPJ5             STTC17           10.011507  0.010000   0.000000   0.000000   0.000000   0.000000  
SMAIN1922        SMH1696          SVAL142          316.508113 0.010000   0.000000   0.000000   0.000000   0.000000  
SMAIN1923        STTC20           SVAL147          9.945015   0.010000   0.000000   0.000000   0.000000   0.000000  
SMAIN1924        SEND4            SRED13           4.624137   0.010000   0.000000   0.000000   0.000000   0.000000  
SMAIN1925        SEND5            SMH2033          331.722174 0.010000   0.000000   0.000000   0.000000   0.000000  
SMAIN1926        SEND7            SVAL150          585.810397 0.010000   0.000000   0.000000   0.000000   0.000000  
SMAIN1927        STTC24           SVAL151          1480.799488 0.010000   0.000000   0.000000   0.000000   0.000000  
SMAIN1928        SEND6            SVAL152          7.163008   0.010000   0.000000   0.000000   0.000000   0.000000  
; 8" F.M.
SMAIN1929        SPJ112           STTC25           279.087726 0.010000   0.000000   0.000000   0.000000   0.000000  
; 8" F.M.
SMAIN1930        STTC25           SRED14           1865.064795 0.010000   0.000000   0.000000   0.000000   0.000000  
; 8" F.M.
SMAIN1931        SVAL143          STTC18           7.934157   0.010000   0.000000   0.000000   0.000000   0.000000  
; 6" F.M.
SMAIN1932        SFL3             SVAL158          9.000730   0.010000   0.000000   0.000000   0.000000   0.000000  
; 6" F.M.
SMAIN1933        SPJ20            STTC19           15.046773  0.010000   0.000000   0.000000   0.000000   0.000000  
; 10" F.M.
SMAIN1935        SVAL119          STTC8            9.169983   0.010000   0.000000   0.000000   0.000000   0.000000  
; 16" FM
SMAIN1936        SRED6            SVAL116          1191.082606 0.010000   0.000000   0.000000   0.000000   0.000000  
; 8" F.M.
SMAIN1937        SVAL103          STTC1            12.181783  0.010000   0.000000   0.000000   0.000000   0.000000  
; 2" F.M.
SMAIN1939        SEND12           STTC2            152.970614 0.010000   0.000000   0.000000   0.000000   0.000000  
; 8" F.M.
SMAIN1941        SPJ148           SVAL156          3330.079650 0.010000   0.000000   0.000000   0.000000   0.000000  
; 8" F.M.
SMAIN1942        SVAL156          STTC26           9.901278   0.010000   0.000000   0.000000   0.000000   0.000000  
; 8" F.M.
SMAIN1943        SRED16           SVAL157          7.368791   0.010000   0.000000   0.000000   0.000000   0.000000  
; 4" F.M.
SMAIN1944        SPJ149           SRED16           819.130151 0.010000   0.000000   0.000000   0.000000   400.000000
; 8" F.M.
SMAIN1945        SVAL157          STTC26           8.071434   0.010000   0.000000   0.000000   0.000000   0.000000  
; 8" F.M.
SMAIN1946        STTC26           SVAL155          739.855455 0.010000   0.000000   0.000000   0.000000   800.000000
SMAIN1947        SEND8            SMH2386          199.873975 0.010000   0.000000   0.000000   0.000000   0.000000  
; 6" F.M.
SMAIN1948        SRED10           SVAL132          642.294124 0.010000   0.000000   0.000000   0.000000   0.000000  
; 8" F.M.
SMAIN1950        SPJ147           SVAL133          467.265208 0.010000   0.000000   0.000000   0.000000   0.000000  
; 8"FM
SMAIN1951        STTC15           SVAL131          6123.128083 0.010000   0.000000   0.000000   0.000000   0.000000  
; 4" F.M.
SMAIN1952        SPJ136           SRED10           364.267140 0.010000   0.000000   0.000000   0.000000   0.000000  
; 8" F.M.
SMAIN1953        SVAL133          STTC15           142.958335 0.010000   0.000000   0.000000   0.000000   0.000000  
; 8" F.M.
SMAIN1954        SVAL131          SRED8            6.830238   0.010000   0.000000   0.000000   0.000000   0.000000  
; 10" FM
SMAIN1955        SRED8            STTC12           6.235913   0.010000   0.000000   0.000000   0.000000   0.000000  
; 10" F.M.
SMAIN1956        STTC12           SVAL128          3389.360409 0.010000   0.000000   0.000000   0.000000   0.000000  
; 4" F.M.
SMAIN1957        SVAL130          STTC12           12.477282  0.010000   0.000000   0.000000   0.000000   0.000000  
; 10" F.M.
SMAIN1958        SVAL128          STTC14           11.866122  0.010000   0.000000   0.000000   0.000000   0.000000  
; 10" F.M.
SMAIN1959        STTC14           SVAL125          1999.405687 0.010000   0.000000   0.000000   0.000000   0.000000  
; 10" F.M.
SMAIN1960        SVAL125          SRED9            10.349555  0.010000   0.000000   0.000000   0.000000   0.000000  
; 12" F.M.
SMAIN1961        SRED9            STTC13           7.034436   0.010000   0.000000   0.000000   0.000000   0.000000  
; 12" F.M.
SMAIN1962        STTC13           SVAL123          151.188172 0.010000   0.000000   0.000000   0.000000   0.000000  
; 4"FM
SMAIN1963        SVAL126          STTC13           12.839384  0.010000   0.000000   0.000000   0.000000   0.000000  
; 12" F.M.
SMAIN1964        SVAL123          STTC10           974.135336 0.010000   0.000000   0.000000   0.000000   0.000000  
; 4"FM
SMAIN1965        SVAL122          STTC10           11.966273  0.010000   0.000000   0.000000   0.000000   0.000000  
; 4"FM
SMAIN1966        SPJ116           SVAL122          1941.127681 0.010000   0.000000   0.000000   0.000000   0.000000  
; 4"FM
SMAIN1967        SVAL127          SVAL126          1828.826837 0.010000   0.000000   0.000000   0.000000   0.000000  
; 12" F.M.
SMAIN1968        STTC10           STTC9            269.376035 0.010000   0.000000   0.000000   0.000000   0.000000  
; 6" F.M.
SMAIN1969        STTC11           SVAL121          3229.060091 0.010000   0.000000   0.000000   0.000000   0.000000  
; 6" F.M.
SMAIN1970        SVAL124          STTC11           9.363410   0.010000   0.000000   0.000000   0.000000   0.000000  
; 12" F.M.
SMAIN1971        STTC9            SVAL105          3133.586568 0.010000   0.000000   0.000000   0.000000   0.000000  
; 12" F.M.
SMAIN1972        SVAL105          STTC2            656.930225 0.010000   0.000000   0.000000   0.000000   0.000000  
; 12" F.M.
SMAIN1973        STTC2            SVAL106          204.058522 0.010000   0.000000   0.000000   0.000000   0.000000  
; 12" F.M.
SMAIN1974        SVAL106          SVAL107          796.864550 0.010000   0.000000   0.000000   0.000000   0.000000  
; 12" F.M.
SMAIN1975        SVAL107          SVAL102          772.464161 0.010000   0.000000   0.000000   0.000000   0.000000  
; 12" F.M.
SMAIN1976        SVAL102          STTC1            55.479212  0.010000   0.000000   0.000000   0.000000   0.000000  
; 8" F.M.
SMAIN1977        SPJ113           SVAL103          2711.248393 0.010000   0.000000   0.000000   0.000000   0.000000  
; 12" F.M.
SMAIN1978        SVAL104          SVAL108          1520.791115 0.010000   0.000000   0.000000   0.000000   0.000000  
; 12" F.M.
SMAIN1979        SVAL108          SVAL109          778.614110 0.010000   0.000000   0.000000   0.000000   0.000000  
; 12" F.M.
SMAIN1980        SVAL109          STTC4            106.611958 0.010000   0.000000   0.000000   0.000000   0.000000  
; 2" F.M.
SMAIN1981        SVAL112          STTC4            11.224542  0.010000   0.000000   0.000000   0.000000   0.000000  
; 12" F.M.
SMAIN1982        SVAL110          STTC3            24.366605  0.010000   0.000000   0.000000   0.000000   0.000000  
; 16" F.M.
SMAIN1983        SRED1            STTC3            4.911248   0.010000   0.000000   0.000000   0.000000   0.000000  
; 12" F.M.
SMAIN1984        SVAL111          SRED1            7.671832   0.010000   0.000000   0.000000   0.000000   0.000000  
; 12"FM
SMAIN1985        SEND1            SVAL111          149.273231 0.010000   0.000000   0.000000   0.000000   0.000000  
; 16" FM
SMAIN1986        SVAL113          STTC5            86.743986  0.010000   0.000000   0.000000   0.000000   0.000000  
; 16" F.M.
SMAIN1987        STTC5            SVAL118          693.512571 0.010000   0.000000   0.000000   0.000000   0.000000  
; 12" FM
SMAIN1988        SVAL115          STTC5            73.757163  0.010000   0.000000   0.000000   0.000000   0.000000  
; 12" F.M.