[TITLE]
;;Project Title/Notes

[OPTIONS]
;;Option             Value
FLOW_UNITS           CFS
INFILTRATION         GREEN_AMPT
FLOW_ROUTING         DYNWAVE
LINK_OFFSETS         DEPTH
MIN_SLOPE            0
ALLOW_PONDING        YES
SKIP_STEADY_STATE    NO

START_DATE           01/01/2020
START_TIME           00:00:00
REPORT_START_DATE    01/01/2020
REPORT_START_TIME    00:00:00
END_DATE             01/03/2020
END_TIME             00:00:00
SWEEP_START          01/01
SWEEP_END            12/31
DRY_DAYS             0.000000
REPORT_STEP          00:05:00
WET_STEP             00:01:00
DRY_STEP             00:01:00
ROUTING_STEP         0:00:05 

INERTIAL_DAMPING     PARTIAL
NORMAL_FLOW_LIMITED  FROUDE
FORCE_MAIN_EQUATION  H-W
VARIABLE_STEP        0.95
LENGTHENING_STEP     0
MIN_SURFAREA         0
MAX_TRIALS           20
HEAD_TOLERANCE       0.001000
SYS_FLOW_TOL         5
LAT_FLOW_TOL         5
MINIMUM_STEP         5.000000
THREADS              1

[EVAPORATION]
;;Data Source    Parameters
;;-------------- ----------------
CONSTANT         0.000000
DRY_ONLY         NO

[RAINGAGES]
;;Name           Format    Interval SCF      Source    
;;-------------- --------- ------ ------ ----------
23RD&RAY         VOLUME    0.250000 1.000000 TIMESERIES DWFLOW          
AIRWAY_HEIGHTS   VOLUME    0.250000 1.000000 TIMESERIES DWFLOW          
CITY_HALL        VOLUME    0.250000 1.000000 TIMESERIES 26DES_STORM1_2YR24HRSCSII
CSO_12           VOLUME    0.250000 1.000000 TIMESERIES DWFLOW          
DIVISION&MANITO  VOLUME    0.250000 1.000000 TIMESERIES 20DES_STORM1_2YR24HRSCSII
FIRE_STATION#8   VOLUME    0.250000 1.000000 TIMESERIES DWFLOW          
JOE_ALBI_STADIUM VOLUME    0.250000 1.000000 TIMESERIES DWFLOW          
LINCOLN          VOLUME    0.250000 1.000000 TIMESERIES DWFLOW          
NORTHEAST        VOLUME    0.250000 1.000000 TIMESERIES DWFLOW          
RAY&HARTSON      VOLUME    0.250000 1.000000 TIMESERIES DWFLOW          
ROCKWOOD_VISTA   VOLUME    0.250000 1.000000 TIMESERIES 24DES_STORM1_2YR24HRSCSII
SHADLE_PARK      VOLUME    0.250000 1.000000 TIMESERIES DWFLOW          
WEST_DRIVE_RES.  VOLUME    0.250000 1.000000 TIMESERIES DWFLOW          

[SUBCATCHMENTS]
;;Name           Rain Gage        Outlet           Area     %Imperv  Width    %Slope   CurbLen  SnowPack        
;;-------------- ---------------- ---------------- -------- -------- -------- -------- -------- ----------------
0600466ND#1      CITY_HALL        0600466ND        7.330000 100.000000 400.000000 1.100000 0.000000                 
26DETTANK1#1     CITY_HALL        26DETTANK1       1.470000 100.000000 400.000000 0.200000 0.000000                 
26DETTANK2#1     CITY_HALL        26DETTANK2       0.830000 100.000000 400.000000 0.200000 0.000000                 
26DETTANK3#1     CITY_HALL        26DETTANK3       0.200000 100.000000 400.000000 0.200000 0.000000                 
26DETTANK4#1     CITY_HALL        26DETTANK4       0.490000 100.000000 400.000000 0.200000 0.000000                 
26DETTANK5#1     CITY_HALL        26DETTANK5       0.540000 100.000000 400.000000 0.200000 0.000000                 
26DETTANK6#1     CITY_HALL        26DETTANK6       1.630000 100.000000 400.000000 0.200000 0.000000                 
4302321#1        CITY_HALL        4302321          10.068000 38.000000 250.000000 6.500000 0.000000                 
4303512#1        CITY_HALL        4303512          11.063000 64.000000 250.000000 2.500000 0.000000                 
5401863#1        CITY_HALL        5401863          55.160000 68.100000 400.000000 3.800000 0.000000                 
5401954#1        CITY_HALL        5401954          11.900000 90.000000 400.000000 3.500000 0.000000                 
5403154#1        CITY_HALL        5403154          0.730000 77.900000 400.000000 6.100000 0.000000                 
5403618#1        CITY_HALL        5403618          2.710000 69.100000 400.000000 10.000000 0.000000                 
5403915#1        ROCKWOOD_VISTA   5403915          4.360000 74.300000 400.000000 2.500000 0.000000                 
5404418#1        ROCKWOOD_VISTA   5404418          11.240000 59.000000 400.000000 2.000000 0.000000                 
5404715#1        ROCKWOOD_VISTA   5404715          5.830000 69.100000 400.000000 5.300000 0.000000                 
5407024#1        CITY_HALL        5407024          34.170000 49.500000 400.000000 1.000000 0.000000                 
5420821#1        CITY_HALL        5420821          21.810000 10.000000 400.000000 2.600000 0.000000                 
5420921#1        CITY_HALL        5420921          18.720000 30.000000 400.000000 3.000000 0.000000                 
5421518#1        CITY_HALL        5421518          8.050000 23.000000 400.000000 3.500000 0.000000                 
5421615#1        CITY_HALL        5421615          3.690000 42.000000 400.000000 3.400000 0.000000                 
5421715#1        CITY_HALL        5421715          6.910000 75.800000 400.000000 16.000000 0.000000                 
5421815#1        CITY_HALL        5421815          4.230000 73.700000 400.000000 5.600000 0.000000                 
5422015#1        CITY_HALL        5422015          8.390000 62.600000 400.000000 6.500000 0.000000                 
5422115#1        CITY_HALL        5422115          1.940000 76.500000 400.000000 15.300000 0.000000                 
5422215#1        CITY_HALL        5422215          2.920000 79.400000 400.000000 4.300000 0.000000                 
5422308#1        CITY_HALL        5422308          3.110000 52.000000 400.000000 8.300000 0.000000                 
5422615#1        CITY_HALL        5422615          1.010000 40.000000 100.000000 1.750000 0.000000                 
5422712#1        CITY_HALL        5422712          1.940000 40.000000 100.000000 1.750000 0.000000                 
5422812#1        CITY_HALL        5422812          3.240000 40.000000 100.000000 1.750000 0.000000                 
5422912#1        CITY_HALL        5422912          1.680000 40.000000 100.000000 1.750000 0.000000                 
5423012#1        CITY_HALL        5423012          16.590000 40.000000 100.000000 1.750000 0.000000                 
5424010#1        CITY_HALL        5424010          10.610000 25.000000 100.000000 1.750000 0.000000                 
5424918#1        CITY_HALL        5424918          30.350000 71.700000 400.000000 2.500000 0.000000                 
5425324#1        CITY_HALL        5425324          6.680000 63.800000 400.000000 7.900000 0.000000                 
5425536#1        CITY_HALL        5425536          2.890000 40.100000 400.000000 2.000000 0.000000                 
5425736#1        CITY_HALL        5425736          20.390000 74.800000 400.000000 6.100000 0.000000                 
5426115#1        CITY_HALL        5426115          5.830000 78.200000 400.000000 3.200000 0.000000                 
5426215#1        CITY_HALL        5426215          8.220000 82.000000 400.000000 1.000000 0.000000                 
5426310#1        CITY_HALL        5426310          4.600000 94.500000 400.000000 2.300000 0.000000                 
5426510#1        ROCKWOOD_VISTA   5426510          4.800000 47.100000 400.000000 10.000000 0.000000                 
5426608#1        ROCKWOOD_VISTA   5426608          3.460000 81.700000 400.000000 4.000000 0.000000                 
5426932#1        CITY_HALL        5426932          3.190000 95.800000 400.000000 3.400000 0.000000                 
5427133#1        CITY_HALL        5427133          4.590000 94.700000 400.000000 1.600000 0.000000                 
5427536#1        CITY_HALL        5427536          21.650000 90.800000 400.000000 4.000000 0.000000                 
5428215#1        CITY_HALL        5428215          6.210000 20.000000 300.000000 14.700000 0.000000                 
5428315#1        CITY_HALL        5428315          28.550000 15.000000 300.000000 14.600000 0.000000                 
5428512#1        ROCKWOOD_VISTA   5428512          49.850000 18.000000 400.000000 2.400000 0.000000                 
5428712#1        ROCKWOOD_VISTA   5428712          8.333000 18.000000 400.000000 9.500000 0.000000                 
5429608#1        ROCKWOOD_VISTA   5429608          3.160000 20.000000 400.000000 3.800000 0.000000                 
5429708#1        ROCKWOOD_VISTA   5429708          5.840000 18.000000 400.000000 3.900000 0.000000                 
5429808#1        ROCKWOOD_VISTA   5429808          11.140000 18.000000 400.000000 3.300000 0.000000                 
5429908#1        ROCKWOOD_VISTA   5429908          8.440000 18.000000 400.000000 5.500000 0.000000                 
5430208#1        CITY_HALL        5430208          8.580000 23.100000 400.000000 17.000000 0.000000                 
5430706#1        CITY_HALL        5430706          1.240000 74.500000 400.000000 7.600000 0.000000                 
5431512#1        ROCKWOOD_VISTA   5431512          11.420000 40.000000 400.000000 7.700000 0.000000                 
5432208#1        ROCKWOOD_VISTA   5432208          2.500000 40.000000 400.000000 10.000000 0.000000                 
5432608#1        ROCKWOOD_VISTA   5432608          7.570000 38.200000 400.000000 5.000000 0.000000                 
5450915#1        CITY_HALL        5450915          4.500000 25.000000 400.000000 1.600000 0.000000                 
5451115#1        CITY_HALL        5451115          6.100000 30.000000 400.000000 1.000000 0.000000                 
5453010#1        CITY_HALL        5453010          1.570000 99.300000 400.000000 2.800000 0.000000                 
5453108#1        CITY_HALL        5453108          3.740000 88.700000 400.000000 7.000000 0.000000                 
5453308#1        CITY_HALL        5453308          1.540000 69.100000 400.000000 5.700000 0.000000                 
5453612#1        CITY_HALL        5453612          5.850000 75.900000 400.000000 8.300000 0.000000                 
5454408#1        CITY_HALL        5454408          11.660000 26.600000 400.000000 10.000000 0.000000                 
5456110#1        CITY_HALL        5456110          3.220000 84.700000 400.000000 1.500000 0.000000                 
5457710#1        CITY_HALL        5457710          1.930000 81.800000 400.000000 5.100000 0.000000                 
5457908#1        CITY_HALL        5457908          4.720000 90.200000 400.000000 4.400000 0.000000                 
5458110#1        CITY_HALL        5458110          1.720000 62.400000 400.000000 6.700000 0.000000                 
5458310#1        ROCKWOOD_VISTA   5458310          6.760000 65.800000 400.000000 3.000000 0.000000                 
5459508#1        CITY_HALL        5459508          5.540000 84.300000 400.000000 4.500000 0.000000                 
5459810#1        CITY_HALL        5459810          8.120000 20.000000 300.000000 5.000000 0.000000                 
5460310#1        CITY_HALL        5460310          18.080000 74.700000 400.000000 1.300000 0.000000                 
5462312#1        ROCKWOOD_VISTA   5462312          6.780000 18.000000 400.000000 16.000000 0.000000                 
5462708#1        ROCKWOOD_VISTA   5462708          8.530000 18.000000 400.000000 13.400000 0.000000                 
5463608#1        ROCKWOOD_VISTA   5463608          4.520000 15.000000 400.000000 3.600000 0.000000                 
5464308#1        ROCKWOOD_VISTA   5464308          2.030000 20.000000 400.000000 2.800000 0.000000                 
5473208#1        CITY_HALL        5473208          0.730000 30.000000 400.000000 10.000000 0.000000                 
5474108#1        ROCKWOOD_VISTA   5474108          7.740000 25.000000 400.000000 2.300000 0.000000                 

[SUBAREAS]
;;Subcatchment   N-Imperv   N-Perv     S-Imperv   S-Perv     PctZero    RouteTo    PctRouted 
;;-------------- ---------- ---------- ---------- ---------- ---------- ---------- ----------
0600466ND#1      0.025000   0.060000   0.100000   0.100000   25.000000  OUTLET    
26DETTANK1#1     0.025000   0.060000   0.100000   0.100000   25.000000  OUTLET    
26DETTANK2#1     0.025000   0.060000   0.100000   0.100000   25.000000  OUTLET    
26DETTANK3#1     0.025000   0.060000   0.100000   0.100000   25.000000  OUTLET    
26DETTANK4#1     0.025000   0.060000   0.100000   0.100000   25.000000  OUTLET    
26DETTANK5#1     0.025000   0.060000   0.100000   0.100000   25.000000  OUTLET    
26DETTANK6#1     0.025000   0.060000   0.100000   0.100000   25.000000  OUTLET    
4302321#1        0.025000   0.060000   0.100000   0.100000   25.000000  OUTLET    
4303512#1        0.025000   0.060000   0.100000   0.100000   25.000000  OUTLET    
5401863#1        0.025000   0.060000   0.100000   0.100000   25.000000  OUTLET    
5401954#1        0.025000   0.060000   0.100000   0.100000   25.000000  OUTLET    
5403154#1        0.025000   0.060000   0.100000   0.100000   25.000000  OUTLET    
5403618#1        0.025000   0.060000   0.100000   0.100000   25.000000  OUTLET    
5403915#1        0.025000   0.060000   0.100000   0.100000   25.000000  OUTLET    
5404418#1        0.025000   0.060000   0.100000   0.100000   25.000000  OUTLET    
5404715#1        0.025000   0.060000   0.100000   0.100000   25.000000  OUTLET    
5407024#1        0.025000   0.060000   0.100000   0.100000   25.000000  OUTLET    
5420821#1        0.025000   0.060000   0.100000   0.100000   25.000000  OUTLET    
5420921#1        0.025000   0.060000   0.100000   0.100000   25.000000  OUTLET    
5421518#1        0.025000   0.060000   0.100000   0.100000   25.000000  OUTLET    
5421615#1        0.025000   0.060000   0.100000   0.100000   25.000000  OUTLET    
5421715#1        0.025000   0.060000   0.100000   0.100000   25.000000  OUTLET    
5421815#1        0.025000   0.060000   0.100000   0.100000   25.000000  OUTLET    
5422015#1        0.025000   0.060000   0.100000   0.100000   25.000000  OUTLET    
5422115#1        0.025000   0.060000   0.100000   0.100000   25.000000  OUTLET    
5422215#1        0.025000   0.060000   0.100000   0.100000   25.000000  OUTLET    
5422308#1        0.025000   0.060000   0.100000   0.100000   25.000000  OUTLET    
5422615#1        0.025000   0.060000   0.100000   0.100000   25.000000  OUTLET    
5422712#1        0.025000   0.060000   0.100000   0.100000   25.000000  OUTLET    
5422812#1        0.025000   0.060000   0.100000   0.100000   25.000000  OUTLET    
5422912#1        0.025000   0.060000   0.100000   0.100000   25.000000  OUTLET    
5423012#1        0.025000   0.060000   0.100000   0.100000   25.000000  OUTLET    
5424010#1        0.025000   0.060000   0.100000   0.100000   25.000000  OUTLET    
5424918#1        0.025000   0.060000   0.100000   0.100000   25.000000  OUTLET    
5425324#1        0.025000   0.060000   0.100000   0.100000   25.000000  OUTLET    
5425536#1        0.025000   0.060000   0.100000   0.100000   25.000000  OUTLET    
5425736#1        0.025000   0.060000   0.100000   0.100000   25.000000  OUTLET    
5426115#1        0.025000   0.060000   0.100000   0.100000   25.000000  OUTLET    
5426215#1        0.025000   0.060000   0.100000   0.100000   25.000000  OUTLET    
5426310#1        0.025000   0.060000   0.100000   0.100000   25.000000  OUTLET    
5426510#1        0.025000   0.060000   0.100000   0.100000   25.000000  OUTLET    
5426608#1        0.025000   0.060000   0.100000   0.100000   25.000000  OUTLET    
5426932#1        0.025000   0.060000   0.100000   0.100000   25.000000  OUTLET    
5427133#1        0.025000   0.060000   0.100000   0.100000   25.000000  OUTLET    
5427536#1        0.025000   0.060000   0.100000   0.100000   25.000000  OUTLET    
5428215#1        0.025000   0.060000   0.100000   0.100000   25.000000  OUTLET    
5428315#1        0.025000   0.060000   0.100000   0.100000   25.000000  OUTLET    
5428512#1        0.025000   0.060000   0.100000   0.100000   25.000000  OUTLET    
5428712#1        0.025000   0.060000   0.100000   0.100000   25.000000  OUTLET    
5429608#1        0.025000   0.060000   0.100000   0.100000   25.000000  OUTLET    
5429708#1        0.025000   0.060000   0.100000   0.100000   25.000000  OUTLET    
5429808#1        0.025000   0.060000   0.100000   0.100000   25.000000  OUTLET    
5429908#1        0.025000   0.060000   0.100000   0.100000   25.000000  OUTLET    
5430208#1        0.025000   0.060000   0.100000   0.100000   25.000000  OUTLET    
5430706#1        0.025000   0.060000   0.100000   0.100000   25.000000  OUTLET    
5431512#1        0.025000   0.060000   0.100000   0.100000   25.000000  OUTLET    
5432208#1        0.025000   0.060000   0.100000   0.100000   25.000000  OUTLET    
5432608#1        0.025000   0.060000   0.100000   0.100000   25.000000  OUTLET    
5450915#1        0.025000   0.060000   0.100000   0.100000   25.000000  OUTLET    
5451115#1        0.025000   0.060000   0.100000   0.100000   25.000000  OUTLET    
5453010#1        0.025000   0.060000   0.100000   0.100000   25.000000  OUTLET    
5453108#1        0.025000   0.060000   0.100000   0.100000   25.000000  OUTLET    
5453308#1        0.025000   0.060000   0.100000   0.100000   25.000000  OUTLET    
5453612#1        0.025000   0.060000   0.100000   0.100000   25.000000  OUTLET    
5454408#1        0.025000   0.060000   0.100000   0.100000   25.000000  OUTLET    
5456110#1        0.025000   0.060000   0.100000   0.100000   25.000000  OUTLET    
5457710#1        0.025000   0.060000   0.100000   0.100000   25.000000  OUTLET    
5457908#1        0.025000   0.060000   0.100000   0.100000   25.000000  OUTLET    
5458110#1        0.025000   0.060000   0.100000   0.100000   25.000000  OUTLET    
5458310#1        0.025000   0.060000   0.100000   0.100000   25.000000  OUTLET    
5459508#1        0.025000   0.060000   0.100000   0.100000   25.000000  OUTLET    
5459810#1        0.025000   0.060000   0.100000   0.100000   25.000000  OUTLET    
5460310#1        0.025000   0.060000   0.100000   0.100000   25.000000  OUTLET    
5462312#1        0.025000   0.060000   0.100000   0.100000   25.000000  OUTLET    
5462708#1        0.025000   0.060000   0.100000   0.100000   25.000000  OUTLET    
5463608#1        0.025000   0.060000   0.100000   0.100000   25.000000  OUTLET    
5464308#1        0.025000   0.060000   0.100000   0.100000   25.000000  OUTLET    
5473208#1        0.025000   0.060000   0.100000   0.100000   25.000000  OUTLET    
5474108#1        0.025000   0.060000   0.100000   0.100000   25.000000  OUTLET    

[INFILTRATION]
;;Subcatchment   Suction    Ksat       IMD       
;;-------------- ---------- ---------- ----------
0600466ND#1      8.000000   0.300000   0.100000  
26DETTANK1#1     8.000000   0.300000   0.100000  
26DETTANK2#1     8.000000   0.300000   0.100000  
26DETTANK3#1     8.000000   0.300000   0.100000  
26DETTANK4#1     8.000000   0.300000   0.100000  
26DETTANK5#1     8.000000   0.300000   0.100000  
26DETTANK6#1     8.000000   0.300000   0.100000  
4302321#1        12.000000  0.250000   0.100000  
4303512#1        12.000000  0.250000   0.100000  
5401863#1        8.000000   0.300000   0.100000  
5401954#1        8.000000   0.300000   0.100000  
5403154#1        8.000000   0.300000   0.100000  
5403618#1        8.000000   0.300000   0.100000  
5403915#1        8.000000   0.300000   0.100000  
5404418#1        8.000000   0.300000   0.100000  
5404715#1        8.000000   0.300000   0.100000  
5407024#1        8.000000   0.300000   0.100000  
5420821#1        8.000000   0.300000   0.100000  
5420921#1        8.000000   0.300000   0.100000  
5421518#1        8.000000   0.300000   0.100000  
5421615#1        8.000000   0.300000   0.100000  
5421715#1        8.000000   0.300000   0.100000  
5421815#1        8.000000   0.300000   0.100000  
5422015#1        8.000000   0.300000   0.100000  
5422115#1        8.000000   0.300000   0.100000  
5422215#1        8.000000   0.300000   0.100000  
5422308#1        8.000000   0.300000   0.100000  
5422615#1        8.000000   0.300000   0.100000  
5422712#1        8.000000   0.300000   0.100000  
5422812#1        8.000000   0.300000   0.100000  
5422912#1        8.000000   0.300000   0.100000  
5423012#1        8.000000   0.300000   0.100000  
5424010#1        8.000000   0.300000   0.100000  
5424918#1        8.000000   0.300000   0.100000  
5425324#1        8.000000   0.300000   0.100000  
5425536#1        8.000000   0.300000   0.100000  
5425736#1        8.000000   0.300000   0.100000  
5426115#1        8.000000   0.300000   0.100000  
5426215#1        8.000000   0.300000   0.100000  
5426310#1        8.000000   0.300000   0.100000  
5426510#1        8.000000   0.300000   0.100000  
5426608#1        8.000000   0.300000   0.100000  
5426932#1        8.000000   0.300000   0.100000  
5427133#1        8.000000   0.300000   0.100000  
5427536#1        8.000000   0.300000   0.100000  
5428215#1        8.000000   0.300000   0.100000  
5428315#1        8.000000   0.300000   0.100000  
5428512#1        8.000000   0.300000   0.100000  
5428712#1        8.000000   0.300000   0.100000  
5429608#1        8.000000   0.300000   0.100000  
5429708#1        8.000000   0.300000   0.100000  
5429808#1        8.000000   0.300000   0.100000  
5429908#1        8.000000   0.300000   0.100000  
5430208#1        8.000000   0.300000   0.100000  
5430706#1        8.000000   0.300000   0.100000  
5431512#1        8.000000   0.300000   0.100000  
5432208#1        8.000000   0.300000   0.100000  
5432608#1        8.000000   0.300000   0.100000  
5450915#1        8.000000   0.300000   0.100000  
5451115#1        8.000000   0.300000   0.100000  
5453010#1        8.000000   0.300000   0.100000  
5453108#1        8.000000   0.300000   0.100000  
5453308#1        8.000000   0.300000   0.100000  
5453612#1        8.000000   0.300000   0.100000  
5454408#1        8.000000   0.300000   0.100000  
5456110#1        8.000000   0.300000   0.100000  
5457710#1        8.000000   0.300000   0.100000  
5457908#1        8.000000   0.300000   0.100000  
5458110#1        8.000000   0.300000   0.100000  
5458310#1        8.000000   0.300000   0.100000  
5459508#1        8.000000   0.300000   0.100000  
5459810#1        8.000000   0.300000   0.100000  
5460310#1        8.000000   0.300000   0.100000  
5462312#1        8.000000   0.300000   0.100000  
5462708#1        8.000000   0.300000   0.100000  
5463608#1        8.000000   0.300000   0.100000  
5464308#1        8.000000   0.300000   0.100000  
5473208#1        8.000000   0.300000   0.100000  
5474108#1        8.000000   0.300000   0.100000  

[JUNCTIONS]
;;Name           Elevation  MaxDepth   InitDepth  SurDepth   Aponded   
;;-------------- ---------- ---------- ---------- ---------- ----------
0600242CD&MH6    1848.990000 22.010000  0.000000   0.000000   0.000000  
0600466ND        1852.300000 19.390000  0.000000   0.000000   0.000000  
25OF1            1766.020000 107.850000 0.000000   0.000000   0.000000  
25OF2            1751.080000 3.000000   0.000000   0.000000   0.000000  
25OF3            1739.870000 7.000000   0.000000   0.000000   0.000000  
25OF4            1729.080000 9.790000   0.000000   0.000000   0.000000  
25OF5            1723.810000 7.560000   0.000000   0.000000   0.000000  
25OF6            1721.070000 2.300000   0.000000   0.000000   0.000000  
26CTIRLF_J1      1850.170000 21.000000  0.000000   0.000000   0.000000  
26CTIRLF_J2      1845.250000 25.000000  0.000000   0.000000   0.000000  
26CTI_J1         1850.170000 21.000000  0.000000   0.000000   0.000000  
26CTI_J2         1849.890000 21.000000  0.000000   0.000000   0.000000  
26FCDS_J1        1832.920000 30.000000  0.000000   0.000000   0.000000  
26FCDS_J2        1832.920000 30.000000  0.000000   0.000000   0.000000  
26FCDS_J3        1832.920000 30.000000  0.000000   0.000000   0.000000  
26FCDS_J4        1832.920000 30.000000  0.000000   0.000000   0.000000  
26FCUS_J1        1834.320000 30.000000  0.000000   0.000000   0.000000  
26FCUS_J2        1834.320000 30.000000  0.000000   0.000000   0.000000  
26FCUS_J3        1834.320000 30.000000  0.000000   0.000000   0.000000  
26FCUS_J4        1834.320000 30.000000  0.000000   0.000000   0.000000  
26FWUS_J1        1832.090000 25.000000  0.000000   0.000000   0.000000  
26FWUS_J2        1832.090000 25.000000  0.000000   0.000000   0.000000  
26FWUS_J3        1832.090000 25.000000  0.000000   0.000000   0.000000  
26FWUS_J4        1832.090000 25.000000  0.000000   0.000000   0.000000  
26RLF_J1         1840.000000 15.000000  0.000000   0.000000   0.000000  
26SUMPDS_J1      1824.000000 35.000000  0.000000   0.000000   0.000000  
26SUMPDS_J2      1824.000000 35.000000  0.000000   0.000000   0.000000  
26SUMPDS_J3      1824.000000 35.000000  0.000000   0.000000   0.000000  
26SUMPDS_J4      1824.000000 35.000000  0.000000   0.000000   0.000000  
26SUMP_J1        1824.000000 25.000000  0.000000   0.000000   0.000000  
26SUMP_J2        1824.000000 35.000000  0.000000   0.000000   0.000000  
26SUMP_J3        1824.000000 35.000000  0.000000   0.000000   0.000000  
26SUMP_J4        1824.000000 25.000000  0.000000   0.000000   0.000000  
4302108          1777.960000 11.170000  0.000000   0.000000   0.000000  
4302221          1783.570000 11.800000  0.000000   0.000000   0.000000  
4302321          1784.610000 11.900000  0.000000   0.000000   0.000000  
4302521          1796.670000 26.770000  0.000000   0.000000   0.000000  
4302612          1820.280000 15.100000  0.000000   0.000000   0.000000  
4302812          1826.140000 16.450000  0.000000   0.000000   0.000000  
4303012          1843.500000 11.240000  0.000000   0.000000   0.000000  
4303112          1846.100000 10.270000  0.000000   0.000000   0.000000  
4303212          1855.620000 15.280000  0.000000   0.000000   0.000000  
4303312          1857.890000 14.550000  0.000000   0.000000   0.000000  
4303412          1858.750000 12.550000  0.000000   0.000000   0.000000  
4303512          1862.170000 12.510000  0.000000   0.000000   0.000000  
4303612          1865.500000 11.820000  0.000000   0.000000   0.000000  
4303710          1869.260000 12.580000  0.000000   0.000000   0.000000  
4303810          1872.980000 13.080000  0.000000   0.000000   0.000000  
4312208          1845.700000 15.970000  0.000000   0.000000   0.000000  
4312330          1846.200000 24.710000  0.000000   0.000000   0.000000  
4313210CD        1777.400000 10.123450  0.000000   0.000000   0.000000  
4313524          1778.160000 10.240000  0.000000   0.000000   0.000000  
4313524CD        1777.860000 11.170000  0.000000   0.000000   0.000000  
500260           1847.610000 27.420000  0.000000   0.000000   0.000000  
500354           1848.550000 30.420000  0.000000   0.000000   0.000000  
5401366          1852.520000 19.570000  0.000000   0.000000   0.000000  
5401463          1853.660000 21.900000  0.000000   0.000000   0.000000  
5401563          1855.730000 22.090000  0.000000   0.000000   0.000000  
5401663          1857.600000 22.270000  0.000000   0.000000   0.000000  
5401763          1858.790000 22.080000  0.000000   0.000000   0.000000  
5401863          1860.700000 20.170000  0.000000   0.000000   0.000000  
5401954          1862.690000 18.180000  0.000000   0.000000   0.000000  
5402054          1866.040000 18.000000  0.000000   0.000000   0.000000  
5402142          1872.020000 17.000000  0.000000   0.000000   0.000000  
5402239          1878.840000 19.000000  0.000000   0.000000   0.000000  
5402339          1883.790000 18.000000  0.000000   0.000000   0.000000  
5402433          1893.700000 9.170000   0.000000   0.000000   0.000000  
5402554          1894.140000 10.730000  0.000000   0.000000   0.000000  
5402654          1894.650000 13.220000  0.000000   0.000000   0.000000  
5402754          1895.370000 13.440000  0.000000   0.000000   0.000000  
5402854          1901.420000 7.500000   0.000000   0.000000   0.000000  
5402954          1913.870000 8.000000   0.000000   0.000000   0.000000  
5403054          1927.370000 7.500000   0.000000   0.000000   0.000000  
5403154          1956.870000 9.390000   0.000000   0.000000   0.000000  
5403254          1972.150000 11.000000  0.000000   0.000000   0.000000  
5403354          1971.970000 11.000000  0.000000   0.000000   0.000000  
5403424          1975.200000 10.000000  0.000000   0.000000   0.000000  
5403524          1981.160000 8.000000   0.000000   0.000000   0.000000  
5403618          2006.330000 8.000000   0.000000   0.000000   0.000000  
5403715          2036.150000 7.000000   0.000000   0.000000   0.000000  
5403815          2053.860000 12.000000  0.000000   0.000000   0.000000  
5403915          2056.670000 9.500000   0.000000   0.000000   0.000000  
5404015          2058.370000 9.500000   0.000000   0.000000   0.000000  
5404115          2069.850000 13.000000  0.000000   0.000000   0.000000  
5404215          2071.200000 12.000000  0.000000   0.000000   0.000000  
5404318          2071.570000 13.000000  0.000000   0.000000   0.000000  
5404418          2072.570000 13.000000  0.000000   0.000000   0.000000  
5404515          2073.360000 11.000000  0.000000   0.000000   0.000000  
5404615          2074.280000 7.500000   0.000000   0.000000   0.000000  
5404715          2074.890000 7.000000   0.000000   0.000000   0.000000  
5405910          1897.410000 11.400000  0.000000   0.000000   0.000000  
5407024          1974.200000 11.000000  0.000000   0.000000   0.000000  
5413854          1864.940000 18.930000  0.000000   0.000000   0.000000  
5417212CD        1862.160000 17.750000  0.000000   0.000000   0.000000  
5417312CD        1862.440000 17.210000  0.000000   0.000000   0.000000  
5417412CD        1862.890000 16.320000  0.000000   0.000000   0.000000  
5417512CD        1865.200000 11.840000  0.000000   0.000000   0.000000  
5420420          1859.870000 12.000000  0.000000   0.000000   0.000000  
5420521          1861.930000 15.500000  0.000000   0.000000   0.000000  
5420621          1863.270000 19.000000  0.000000   0.000000   0.000000  
5420718          1863.870000 18.300000  0.000000   0.000000   0.000000  