[TITLE]
;;Project Title/Notes

[OPTIONS]
;;Option             Value
FLOW_UNITS           GPM
INFILTRATION         HORTON
FLOW_ROUTING         DYNWAVE
LINK_OFFSETS         DEPTH
MIN_SLOPE            0
ALLOW_PONDING        NO
SKIP_STEADY_STATE    NO

START_DATE           01/01/2002
START_TIME           00:00:00
REPORT_START_DATE    01/01/2002
REPORT_START_TIME    00:00:00
END_DATE             01/01/2002
END_TIME             12:00:00
SWEEP_START          01/01
SWEEP_END            12/31
DRY_DAYS             5.000000
REPORT_STEP          00:05:00
WET_STEP             01:00:00
DRY_STEP             23:00:00
ROUTING_STEP         0:00:30 

INERTIAL_DAMPING     NONE
NORMAL_FLOW_LIMITED  BOTH
FORCE_MAIN_EQUATION  H-W
VARIABLE_STEP        0.75
LENGTHENING_STEP     10
MIN_SURFAREA         12.557
MAX_TRIALS           8
HEAD_TOLERANCE       0.005
SYS_FLOW_TOL         5
LAT_FLOW_TOL         5
MINIMUM_STEP         0
THREADS              1

[EVAPORATION]
;;Data Source    Parameters
;;-------------- ----------------
CONSTANT         0.0
DRY_ONLY         NO

[JUNCTIONS]
;;Name           Elevation  MaxDepth   InitDepth  SurDepth   Aponded   
;;-------------- ---------- ---------- ---------- ---------- ----------
; LS3_Vault
10               3827.090000 24.903000  0.000000   1000.000000 0.000000  
; LS2_Vault
12               3828.330000 23.064000  0.000000   1000.000000 0.000000  
; LS1_Vault
14               3825.630000 17.366000  0.000000   1000.000000 0.000000  
; HWY478_Vault
16               3839.000000 3.996000   0.000000   1000.000000 0.000000  
; Mesquite_OutMH
20               3837.900000 4.000000   0.000000   0.000000   0.000000  
; Mesquite_OutMH2
24               3835.000000 4.000000   0.000000   0.000000   0.000000  
; LS4_Vault
26               3830.000000 4.453000   0.000000   1000.000000 0.000000  
; LS3_FM
28               3851.000000 4.000000   0.000000   1000.000000 0.000000  
; LS2_FM
30               3847.000000 4.394000   0.000000   1000.000000 0.000000  
; LS5_Vault
32               3847.000000 4.000000   0.000000   1000.000000 0.000000  
; New Manhole
34               3828.000000 23.000000  0.000000   0.000000   0.000000  
; LS16_Vault
36               3847.000000 4.000000   0.000000   1000.000000 0.000000  
; LS16_LoadingMH
38               3834.000000 17.000000  0.000000   0.000000   0.000000  
; LS17_Vault
40               3847.000000 4.000000   0.000000   1000.000000 0.000000  
; LS17_LoadingMH
42               3829.000000 22.000000  0.000000   0.000000   0.000000  
; LS18_Vault
44               3849.000000 4.000000   0.000000   1000.000000 0.000000  
; LS17_LoadingMH
46               3836.000000 17.000000  0.000000   0.000000   0.000000  
; New Manhole
48               3849.000000 4.000000   0.000000   1000.000000 0.000000  
; New Manhole
50               3841.000000 4.000000   0.000000   1000.000000 0.000000  
; FSASMH-1
FSASMH-1         3841.349000 9.080309   0.000000   0.000000   0.000000  
; FSASMH-2
FSASMH-2         3842.813000 8.346150   0.000000   0.000000   0.000000  
; FSASMH-3
FSASMH-3         3844.520600 5.835990   0.000000   0.000000   0.000000  
; FSASMH-4
FSASMH-4         3845.825500 4.690003   0.000000   0.000000   0.000000  
; FSASMH-5
FSASMH-5         3843.085200 8.264349   0.000000   0.000000   0.000000  
; FSASMH-6
FSASMH-6         3844.663300 5.887004   0.000000   0.000000   0.000000  
; FSASMH-7
FSASMH-7         3846.350500 4.942151   0.000000   0.000000   0.000000  
; FSASMH-8
FSASMH-8         3847.663000 3.690000   0.000000   0.000000   0.000000  
; SASMH-1
SASMH-1          3827.010100 7.639393   0.000000   0.000000   0.000000  
; SASMH-10
SASMH-10         3828.234100 4.684869   0.000000   0.000000   0.000000  
; SASMH-100
SASMH-100        3836.262600 10.184200  0.000000   0.000000   0.000000  
; SASMH-101
SASMH-101        3837.834200 17.488991  0.000000   0.000000   0.000000  
; SASMH-102
SASMH-102        3839.445900 20.041900  0.000000   0.000000   0.000000  
; SASMH-103
SASMH-103        3840.162600 21.123434  0.000000   0.000000   0.000000  
; SASMH-104
SASMH-104        3857.746200 7.269336   0.000000   0.000000   0.000000  
; SASMH-105
SASMH-105        3868.921300 5.447413   0.000000   0.000000   0.000000  
; SASMH-106
SASMH-106        3870.621300 8.078700   0.000000   0.000000   0.000000  
; SASMH-107
SASMH-107        3881.104200 4.690032   0.000000   0.000000   0.000000  
; SASMH-108
SASMH-108        3834.562600 12.380687  0.000000   0.000000   0.000000  
; SASMH-109
SASMH-109        3833.498300 13.118643  0.000000   0.000000   0.000000  
; SASMH-11
SASMH-11         3827.149600 6.052294   0.000000   0.000000   0.000000  
; SASMH-110
SASMH-110        3833.062500 13.533960  0.000000   0.000000   0.000000  
; SASMH-111
SASMH-111        3831.524100 15.555814  0.000000   0.000000   0.000000  
; SASMH-112
SASMH-112        3843.484200 6.682108   0.000000   0.000000   0.000000  
; SASMH-113
SASMH-113        3843.962400 5.090519   0.000000   0.000000   0.000000  
; SASMH-114
SASMH-114        3844.500100 4.689954   0.000000   0.000000   0.000000  
; SASMH-115
SASMH-115        3842.671700 13.734547  0.000000   0.000000   0.000000  
; SASMH-116
SASMH-116        3844.371700 10.792848  0.000000   0.000000   0.000000  
; SASMH-117
SASMH-117        3846.071700 4.689951   0.000000   0.000000   0.000000  
; SASMH-118
SASMH-118        3840.833500 19.195582  0.000000   0.000000   0.000000  
; SASMH-119
SASMH-119        3842.501400 10.989894  0.000000   0.000000   0.000000  
; SASMH-12
SASMH-12         3827.664400 4.717512   0.000000   0.000000   0.000000  
; SASMH-120
SASMH-120        3843.309000 6.778981   0.000000   0.000000   0.000000  
; SASMH-121
SASMH-121        3844.506000 5.311914   0.000000   0.000000   0.000000  
; SASMH-122
SASMH-122        3845.715300 8.015561   0.000000   0.000000   0.000000  
; SASMH-123
SASMH-123        3851.046000 10.295634  0.000000   0.000000   0.000000  
; SASMH-124
SASMH-124        3854.291200 7.620754   0.000000   0.000000   0.000000  
; SASMH-125
SASMH-125        3857.721500 4.935348   0.000000   0.000000   0.000000  
; SASMH-126
SASMH-126        3861.089500 6.457291   0.000000   0.000000   0.000000  
; SASMH-127
SASMH-127        3862.189200 9.910220   0.000000   0.000000   0.000000  
; SASMH-128
SASMH-128        3872.986400 7.187510   0.000000   0.000000   0.000000  
; SASMH-129
SASMH-129        3861.415500 6.300121   0.000000   0.000000   0.000000  
; SASMH-13
SASMH-13         3826.342000 7.677664   0.000000   0.000000   0.000000  
; SASMH-130
SASMH-130        3863.193100 6.088710   0.000000   0.000000   0.000000  
; SASMH-131
SASMH-131        3868.992900 5.748874   0.000000   0.000000   0.000000  
; SASMH-132
SASMH-132        3869.641200 6.663800   0.000000   0.000000   0.000000  
; SASMH-133
SASMH-133        3872.682100 7.766020   0.000000   0.000000   0.000000  
; SASMH-134
SASMH-134        3877.268600 6.965169   0.000000   0.000000   0.000000  
; SASMH-135
SASMH-135        3882.735600 7.113508   0.000000   0.000000   0.000000  
; SASMH-136
SASMH-136        3890.856900 4.795257   0.000000   0.000000   0.000000  
; SASMH-137
SASMH-137        3874.043200 6.721484   0.000000   0.000000   0.000000  
; SASMH-138
SASMH-138        3875.408900 4.690047   0.000000   0.000000   0.000000  
; SASMH-139
SASMH-139        3878.647200 5.941485   0.000000   0.000000   0.000000  
; SASMH-14
SASMH-14         3831.660000 4.822597   0.000000   0.000000   0.000000  
; SASMH-140
SASMH-140        3880.025300 4.690014   0.000000   0.000000   0.000000  
; SASMH-141
SASMH-141        3883.174500 5.422000   0.000000   0.000000   0.000000  
; SASMH-142
SASMH-142        3883.606800 6.733170   0.000000   0.000000   0.000000  
; SASMH-143
SASMH-143        3885.306800 4.689996   0.000000   0.000000   0.000000  
; SASMH-144
SASMH-144        3858.221100 7.024081   0.000000   0.000000   0.000000  
; SASMH-145
SASMH-145        3859.231900 9.192846   0.000000   0.000000   0.000000  
; SASMH-146
SASMH-146        3860.169000 10.281858  0.000000   0.000000   0.000000  
; SASMH-147
SASMH-147        3861.136100 10.158590  0.000000   0.000000   0.000000  
; SASMH-148
SASMH-148        3863.331400 9.347600   0.000000   0.000000   0.000000  
; SASMH-149
SASMH-149        3864.477000 8.925002   0.000000   0.000000   0.000000  
; SASMH-15
SASMH-15         3830.205500 6.110493   0.000000   0.000000   0.000000  
; SASMH-150
SASMH-150        3865.992700 4.690019   0.000000   0.000000   0.000000  
; SASMH-151
SASMH-151        3874.169300 6.851285   0.000000   0.000000   0.000000  
; SASMH-152
SASMH-152        3884.520400 4.690024   0.000000   0.000000   0.000000  
; SASMH-153
SASMH-153        3875.039500 5.703488   0.000000   0.000000   0.000000  
; SASMH-154
SASMH-154        3875.338100 5.557909   0.000000   0.000000   0.000000  
; SASMH-155
SASMH-155        3879.383900 5.803617   0.000000   0.000000   0.000000  
; SASMH-156
SASMH-156        3886.683900 4.689979   0.000000   0.000000   0.000000  
; SASMH-157
SASMH-157        3870.745800 6.593882   0.000000   0.000000   0.000000  
; SASMH-158
SASMH-158        3875.342600 8.065227   0.000000   0.000000   0.000000  
; SASMH-159
SASMH-159        3886.361900 4.690049   0.000000   0.000000   0.000000  
; SASMH-16
SASMH-16         3828.722400 6.944314   0.000000   0.000000   0.000000  
; SASMH-160
SASMH-160        3889.050300 4.689961   0.000000   0.000000   0.000000  
; SASMH-17
SASMH-17         3821.053800 13.045561  0.000000   0.000000   0.000000  
; SASMH-18
SASMH-18         3818.093800 15.689970  0.000000   0.000000   0.000000  
; SASMH-19
SASMH-19         3818.383800 15.446420  0.000000   0.000000   0.000000  
; SASMH-2
SASMH-2          3826.057100 8.584626   0.000000   0.000000   0.000000  
; SASMH-20
SASMH-20         3818.639500 15.607973  0.000000   0.000000   0.000000  
; SASMH-21
SASMH-21         3819.629300 14.681850  0.000000   0.000000   0.000000  
; SASMH-22
SASMH-22         3820.619800 13.701023  0.000000   0.000000   0.000000  
; SASMH-23
SASMH-23         3820.886800 13.329985  0.000000   0.000000   0.000000  
; SASMH-24
SASMH-24         3821.234400 12.798074  0.000000   0.000000   0.000000  
; SASMH-25
SASMH-25         3821.706600 12.180857  0.000000   0.000000   0.000000  
; SASMH-26
SASMH-26         3823.776200 9.916513   0.000000   0.000000   0.000000  
; SASMH-27
SASMH-27         3825.164400 8.490924   0.000000   0.000000   0.000000  
; SASMH-28
SASMH-28         3826.740000 12.816728  0.000000   0.000000   0.000000  
; SASMH-29
SASMH-29         3827.850000 11.250097  0.000000   0.000000   0.000000  
; SASMH-3
SASMH-3          3824.345100 9.719754   0.000000   0.000000   0.000000  
; SASMH-30
SASMH-30         3829.550000 10.888377  0.000000   0.000000   0.000000  
; SASMH-31
SASMH-31         3831.250000 8.496158   0.000000   0.000000   0.000000  
; SASMH-32
SASMH-32         3821.897500 11.170487  0.000000   0.000000   0.000000  
; SASMH-33
SASMH-33         3822.942600 9.217177   0.000000   0.000000   0.000000  
; SASMH-34
SASMH-34         3823.368800 11.231912  0.000000   0.000000   0.000000  
; SASMH-35
SASMH-35         3824.351000 8.148396   0.000000   0.000000   0.000000  
; SASMH-36
SASMH-36         3826.400000 6.003389   0.000000   0.000000   0.000000  
; SASMH-37
SASMH-37         3824.540000 7.597808   0.000000   0.000000   0.000000  
; SASMH-38
SASMH-38         3825.940000 7.945276   0.000000   0.000000   0.000000  
; SASMH-39
SASMH-39         3827.640000 5.998789   0.000000   0.000000   0.000000  
; SASMH-4
SASMH-4          3823.760000 10.646158  0.000000   0.000000   0.000000  
; SASMH-40
SASMH-40         3835.960000 8.378472   0.000000   0.000000   0.000000  
; SASMH-41
SASMH-41         3834.260000 9.203061   0.000000   0.000000   0.000000  
; SASMH-42
SASMH-42         3832.560000 11.362837  0.000000   0.000000   0.000000  
; SASMH-43
SASMH-43         3830.860000 12.502265  0.000000   0.000000   0.000000  
; SASMH-44
SASMH-44         3829.160000 13.900686  0.000000   0.000000   0.000000  
; SASMH-45
SASMH-45         3831.618000 10.521027  0.000000   0.000000   0.000000  
; SASMH-46
SASMH-46         3832.556000 10.760091  0.000000   0.000000   0.000000  
; SASMH-47
SASMH-47         3834.256000 10.124144  0.000000   0.000000   0.000000  
; SASMH-48
SASMH-48         3835.956000 8.782533   0.000000   0.000000   0.000000  
; SASMH-49
SASMH-49         3828.804000 13.955055  0.000000   0.000000   0.000000  
; SASMH-5
SASMH-5          3823.231000 11.181676  0.000000   0.000000   0.000000  
; SASMH-50
SASMH-50         3833.806000 8.837512   0.000000   0.000000   0.000000  
; SASMH-51
SASMH-51         3835.162000 7.874336   0.000000   0.000000   0.000000  
; SASMH-52
SASMH-52         3836.518000 5.999929   0.000000   0.000000   0.000000  
; SASMH-53
SASMH-53         3832.852000 9.801486   0.000000   0.000000   0.000000  
; SASMH-54
SASMH-54         3834.082000 8.230499   0.000000   0.000000   0.000000  
; SASMH-55
SASMH-55         3835.312100 6.906900   0.000000   0.000000   0.000000  
; SASMH-56
SASMH-56         3837.234700 7.055817   0.000000   0.000000   0.000000  
; SASMH-57
SASMH-57         3838.525800 5.752144   0.000000   0.000000   0.000000  
; SASMH-58
SASMH-58         3839.817100 4.689981   0.000000   0.000000   0.000000  
; SASMH-59
SASMH-59         3839.780400 11.595607  0.000000   0.000000   0.000000  
; SASMH-6
SASMH-6          3822.711600 12.933168  0.000000   0.000000   0.000000  
; SASMH-60
SASMH-60         3840.837300 11.729488  0.000000   0.000000   0.000000  
; SASMH-61
SASMH-61         3842.537300 9.928839   0.000000   0.000000   0.000000  
; SASMH-62
SASMH-62         3844.237300 7.726350   0.000000   0.000000   0.000000  
; SASMH-63
SASMH-63         3845.937300 6.051043   0.000000   0.000000   0.000000  
; SASMH-64
SASMH-64         3847.450000 6.002018   0.000000   0.000000   0.000000  
; SASMH-65
SASMH-65         3850.360000 5.995457   0.000000   0.000000   0.000000  
; SASMH-66
SASMH-66         3853.730000 5.997293   0.000000   0.000000   0.000000  
; SASMH-67
SASMH-67         3831.680000 18.366701  0.000000   0.000000   0.000000  
; SASMH-68
SASMH-68         3832.523000 19.048138  0.000000   0.000000   0.000000  
; SASMH-69
SASMH-69         3835.255000 15.491545  0.000000   0.000000   0.000000  
; SASMH-7
SASMH-7          3827.574300 6.836881   0.000000   0.000000   0.000000  
; SASMH-70
SASMH-70         3836.554600 12.739004  0.000000   0.000000   0.000000  
; SASMH-71
SASMH-71         3844.160700 7.147458   0.000000   0.000000   0.000000  
; SASMH-72
SASMH-72         3845.337100 7.618074   0.000000   0.000000   0.000000  
; SASMH-73
SASMH-73         3847.041200 4.690018   0.000000   0.000000   0.000000  
; SASMH-74
SASMH-74         3836.955000 12.841284  0.000000   0.000000   0.000000  
; SASMH-75
SASMH-75         3838.655000 11.214092  0.000000   0.000000   0.000000  
; SASMH-76
SASMH-76         3840.355000 10.223000  0.000000   0.000000   0.000000  
; SASMH-77
SASMH-77         3844.688600 4.689983   0.000000   0.000000   0.000000  
; SASMH-78
SASMH-78         3843.028600 5.967297   0.000000   0.000000   0.000000  
; SASMH-79
SASMH-79         3841.328600 7.532836   0.000000   0.000000   0.000000  
; SASMH-8
SASMH-8          3828.417400 6.773600   0.000000   0.000000   0.000000  
; SASMH-80
SASMH-80         3839.628600 10.817769  0.000000   0.000000   0.000000  
; SASMH-81
SASMH-81         3838.830800 13.146062  0.000000   0.000000   0.000000  
; SASMH-82
SASMH-82         3838.187100 14.094804  0.000000   0.000000   0.000000  
; SASMH-83
SASMH-83         3849.543100 7.081268   0.000000   0.000000   0.000000  
; SASMH-84
SASMH-84         3855.243100 6.818500   0.000000   0.000000   0.000000  
; SASMH-85
SASMH-85         3859.040000 5.999641   0.000000   0.000000   0.000000  
; SASMH-86
SASMH-86         3844.111100 4.690032   0.000000   0.000000   0.000000  
; SASMH-87
SASMH-87         3837.971600 14.275517  0.000000   0.000000   0.000000  
; SASMH-88
SASMH-88         3837.607100 14.517918  0.000000   0.000000   0.000000  
; SASMH-89
SASMH-89         3836.519800 16.706200  0.000000   0.000000   0.000000  
; SASMH-9
SASMH-9          3829.655400 6.052124   0.000000   0.000000   0.000000  
; SASMH-90
SASMH-90         3835.671600 16.207377  0.000000   0.000000   0.000000  
; SASMH-91
SASMH-91         3834.825200 18.142804  0.000000   0.000000   0.000000  
; SASMH-92
SASMH-92         3834.437200 18.820086  0.000000   0.000000   0.000000  
; SASMH-93
SASMH-93         3834.051400 19.331794  0.000000   0.000000   0.000000  
; SASMH-94
SASMH-94         3833.509600 21.291871  0.000000   0.000000   0.000000  
; SASMH-95
SASMH-95         3832.788800 21.725736  0.000000   0.000000   0.000000  
; SASMH-96
SASMH-96         3832.168900 20.952275  0.000000   0.000000   0.000000  
; SASMH-97
SASMH-97         3831.752300 20.353801  0.000000   0.000000   0.000000  
; SASMH-98
SASMH-98         3831.326300 20.059436  0.000000   0.000000   0.000000  
; SASMH-99
SASMH-99         3830.280000 19.532029  0.000000   0.000000   0.000000  

[OUTFALLS]
;;Name           Elevation  Type       Stage Data       Gated    Route To        
;;-------------- ---------- ---------- ---------------- -------- ----------------
; Mesquite_Out1
18               3837.000000 FREE                        NO                       
; Mesquite_Out2
22               3834.000000 FREE                        NO                       

[STORAGE]
;;Name           Elev.    MaxDepth   InitDepth  Shape      Curve Name/Params            N/A      Fevap    Psi      Ksat     IMD     
;;-------------- -------- ---------- ----------- ---------- ---------------------------- -------- --------          -------- --------
; Lift Station 1
9000             3823.530000 19.500000  1.500000   FUNCTIONAL 0.000000  0.000000  28.274334 0.000000 0.000000
; Lift Station 2
9002             3826.834000 25.000000  1.500000   FUNCTIONAL 0.000000  0.000000  28.274334 0.000000 0.000000
; Lift Station 3
9004             3825.590000 26.400000  1.500000   FUNCTIONAL 0.000000  0.000000  28.274334 0.000000 0.000000
; Lift Station 4
9006             3813.450000 21.000000  1.500000   FUNCTIONAL 0.000000  0.000000  28.274334 0.000000 0.000000
; Lift Station 5
9008             3825.000000 25.000000  1.500000   FUNCTIONAL 0.000000  0.000000  28.274334 0.000000 0.000000
; Lift Station 16
9010             3831.000000 20.000000  1.500000   FUNCTIONAL 0.000000  0.000000  28.274334 0.000000 0.000000
; Lift Station 17
9012             3826.000000 25.000000  1.500000   FUNCTIONAL 0.000000  0.000000  28.274334 0.000000 0.000000
; Lift Station 18
9014             3833.000000 20.000000  1.500000   FUNCTIONAL 0.000000  0.000000  28.274334 0.000000 0.000000

[CONDUITS]
;;Name           From Node        To Node          Length     Roughness  InOffset   OutOffset  InitFlow   MaxFlow   
;;-------------- ---------------- ---------------- ---------- ---------- ---------- ---------- ---------- ----------
; LS3_FM
11               10               28               808.231000 0.010000   0.000000   0.000000   0.000000   0.000000  
; LS1_FM
13               14               16               53.526000  0.010000   0.000000   0.000000   0.000000   0.000000  
; LS2_FM
15               12               30               92.292000  0.010000   0.000000   0.000000   0.000000   0.000000  
; Mesquite_OutPipe
17               20               18               5.733000   0.012000   0.000000   0.000000   0.000000   0.000000  
; HWY478_FM
19               16               50               1093.310000 0.010000   0.000000   0.000000   0.000000   0.000000  
; Mesquite_OutPipe2
21               24               22               9.229000   0.012000   0.000000   0.000000   0.000000   0.000000  
; LS4_FM
23               26               24               5666.335000 0.010000   0.000000   0.000000   0.000000   0.000000  
; LS3_FM2
25               28               SASMH-70         4553.582000 0.010000   0.000000   6.871400   0.000000   0.000000  
; LS5_FM
29               32               FSASMH-2         867.260000 0.010000   0.000000   0.000000   0.000000   0.000000  
; New Pipe
31               34               9008             40.224000  0.012000   0.000000   0.000000   0.000000   0.000000  
; LS2_FM2
33               30               48               3190.412000 0.010000   0.000000   0.000000   0.000000   0.000000  
; LS16_FM
35               36               34               2861.542000 0.010000   0.000000   19.000000  0.000000   0.000000  
; New Pipe
37               38               9010             233.896000 0.012000   0.000000   0.000000   0.000000   0.000000  
; LS17_FM
39               40               34               3133.746000 0.010000   0.000000   19.000000  0.000000   0.000000  
; New Pipe
41               42               9012             55.124000  0.012000   0.000000   0.000000   0.000000   0.000000  
; New Pipe
43               46               9014             85.892000  0.012000   0.000000   0.000000   0.000000   0.000000  
; LS18_FM
45               44               42               4280.629000 0.010000   0.000000   18.000000  0.000000   0.000000  
; New Pipe
47               48               16               3811.050000 0.010000   0.000000   0.000000   0.000000   0.000000  
; New Pipe
49               50               20               3330.602000 0.010000   0.000000   0.000000   0.000000   0.000000  
; FSASP-1
FSASP-1          FSASMH-1         SASMH-76         223.523000 0.010000   0.000000   0.100000   0.000000   0.000000  
; FSASP-2
FSASP-2          FSASMH-2         FSASMH-1         340.941000 0.010000   0.000000   0.100000   0.000000   0.000000  
; FSASP-3
FSASP-3          FSASMH-3         FSASMH-1         301.225155 0.010000   0.000000   1.966700   0.000000   0.000000  
; FSASP-4
FSASP-4          FSASMH-4         FSASMH-3         301.225155 0.010000   0.000000   0.100000   0.000000   0.000000  
; FSASP-5
FSASP-5          FSASMH-5         FSASMH-2         43.162413  0.010000   0.000000   0.099500   0.000000   0.000000  
; FSASP-6
FSASP-6          FSASMH-6         FSASMH-5         369.539725 0.010000   0.000000   0.100000   0.000000   0.000000  
; FSASP-7
FSASP-7          FSASMH-7         FSASMH-6         396.802428 0.010000   0.000000   0.100000   0.000000   0.000000  
; FSASP-8
FSASP-8          FSASMH-8         FSASMH-7         303.119089 0.010000   0.000000   0.100000   0.000000   0.000000  
; LSP1
LSP1             SASMH-49         9000             42.045289  0.010000   0.000000   0.000000   0.000000   0.000000  
; LSP2
LSP2             SASMH-67         9002             86.612000  0.010000   0.000000   0.000000   0.000000   0.000000  
; LSP3
LSP3             SASMH-99         9004             46.915964  0.010000   0.000000   0.000000   0.000000   0.000000  
; LSP4
LSP4             SASMH-18         9006             35.988558  0.010000   0.000000   0.000000   0.000000   0.000000  
; SASP-1
SASP-1           SASMH-1          SASMH-2          214.526045 0.010000   0.000000   0.102900   0.000000   0.000000  
; SASP-10
SASP-10          SASMH-11         SASMH-2          248.171287 0.010000   0.000000   0.100000   0.000000   0.000000  
; SASP-100
SASP-100         SASMH-105        SASMH-104        400.000000 0.010000   0.000000   0.103800   0.000000   0.000000  
; SASP-101
SASP-101         SASMH-106        SASMH-105        400.000000 0.010000   0.000000   0.100000   0.000000   0.000000  
; SASP-102
SASP-102         SASMH-107        SASMH-106        305.380104 0.010000   0.000000   0.100000   0.000000   0.000000  
; SASP-103
SASP-103         SASMH-100        SASMH-108        399.999994 0.010000   0.000000   0.100000   0.000000   0.000000  
; SASP-104
SASP-104         SASMH-108        SASMH-109        241.090987 0.010000   0.000000   0.100000   0.000000   0.000000  
; SASP-105
SASP-105         SASMH-109        SASMH-110        83.956376  0.010000   0.000000   0.100000   0.000000   0.000000  
; SASP-106
SASP-106         SASMH-110        SASMH-111        359.598060 0.010000   0.000000   0.100000   0.000000   0.000000  
; SASP-107
SASP-107         SASMH-111        SASMH-99         55.588364  0.010000   0.000000   1.021700   0.000000   0.000000  
; SASP-108
SASP-108         SASMH-112        SASMH-101        353.163937 0.010000   0.000000   4.237400   0.000000   0.000000  
; SASP-109
SASP-109         SASMH-113        SASMH-112        94.540188  0.010000   0.000000   0.100000   0.000000   0.000000  
; SASP-11
SASP-11          SASMH-12         SASMH-13         309.476612 0.010000   0.000000   0.100000   0.000000   0.000000  
; SASP-110
SASP-110         SASMH-114        SASMH-113        109.418324 0.010000   0.000000   0.100000   0.000000   0.000000  
; SASP-111
SASP-111         SASMH-115        SASMH-102        258.568104 0.010000   0.000000   2.191500   0.000000   0.000000  
; SASP-112
SASP-112         SASMH-116        SASMH-115        400.006585 0.010000   0.000000   0.100000   0.000000   0.000000  
; SASP-113
SASP-113         SASMH-117        SASMH-116        399.993341 0.010000   0.000000   0.100000   0.000000   0.000000  
; SASP-114
SASP-114         SASMH-118        SASMH-103        142.717343 0.010000   0.000000   0.100000   0.000000   0.000000  
; SASP-115
SASP-115         SASMH-119        SASMH-118        355.886164 0.010000   0.000000   0.100000   0.000000   0.000000  
; SASP-116
SASP-116         SASMH-120        SASMH-119        176.918295 0.010000   0.000000   0.100000   0.000000   0.000000  
; SASP-117
SASP-117         SASMH-121        SASMH-120        274.248085 0.010000   0.000000   0.100000   0.000000   0.000000  
; SASP-118
SASP-118         SASMH-122        SASMH-121        277.306494 0.010000   0.000000   0.100000   0.000000   0.000000  
; SASP-119
SASP-119         SASMH-123        SASMH-122        189.595672 0.010000   0.000000   2.674500   0.000000   0.000000  
; SASP-12
SASP-12          SASMH-13         SASMH-4          50.897337  0.010000   0.000000   2.378400   0.000000   0.000000  
; SASP-120
SASP-120         SASMH-124        SASMH-123        231.940891 0.010000   0.000000   0.000000   0.000000   0.000000  
; SASP-121
SASP-121         SASMH-125        SASMH-124        237.876690 0.010000   0.000000   0.100000   0.000000   0.000000  
; SASP-122
SASP-122         SASMH-126        SASMH-125        247.447501 0.010000   0.000000   0.100000   0.000000   0.000000  
; SASP-123
SASP-123         SASMH-127        SASMH-126        249.946121 0.010000   0.000000   0.100000   0.000000   0.000000  
; SASP-124
SASP-124         SASMH-128        SASMH-127        449.432168 0.010000   0.000000   2.508300   0.000000   0.000000  
; SASP-125
SASP-125         SASMH-129        SASMH-104        254.953478 0.010000   0.000000   0.100000   0.000000   0.000000  
; SASP-126
SASP-126         SASMH-130        SASMH-129        419.381321 0.010000   0.000000   0.100000   0.000000   0.000000  
; SASP-127
SASP-127         SASMH-131        SASMH-130        407.134120 0.010000   0.000000   0.100000   0.000000   0.000000  
; SASP-128
SASP-128         SASMH-132        SASMH-131        137.058741 0.010000   0.000000   0.100000   0.000000   0.000000  
; SASP-129
SASP-129         SASMH-133        SASMH-132        238.060480 0.010000   0.000000   0.100000   0.000000   0.000000  
; SASP-13
SASP-13          SASMH-14         SASMH-15         340.607156 0.010000   0.000000   0.100000   0.000000   0.000000  
; SASP-130
SASP-130         SASMH-134        SASMH-133        207.702819 0.010000   0.000000   0.097900   0.000000   0.000000  
; SASP-131
SASP-131         SASMH-135        SASMH-134        298.080466 0.010000   0.000000   0.101400   0.000000   0.000000  
; SASP-132
SASP-132         SASMH-136        SASMH-135        355.474844 0.010000   0.000000   0.104400   0.000000   0.000000  
; SASP-133
SASP-133         SASMH-137        SASMH-133        315.275351 0.010000   0.000000   0.100000   0.000000   0.000000  
; SASP-134
SASP-134         SASMH-138        SASMH-137        316.445500 0.010000   0.000000   0.100000   0.000000   0.000000  
; SASP-135
SASP-135         SASMH-139        SASMH-134        319.641504 0.010000   0.000000   0.100000   0.000000   0.000000  
; SASP-136
SASP-136         SASMH-140        SASMH-139        319.530000 0.010000   0.000000   0.100000   0.000000   0.000000  
; SASP-137
SASP-137         SASMH-141        SASMH-135        84.725621  0.010000   0.000000   0.100000   0.000000   0.000000  
; SASP-138
SASP-138         SASMH-142        SASMH-141        83.075204  0.010000   0.000000   0.100000   0.000000   0.000000  
; SASP-139
SASP-139         SASMH-143        SASMH-142        400.000000 0.010000   0.000000   0.100000   0.000000   0.000000  
; SASP-14
SASP-14          SASMH-15         SASMH-16         345.782734 0.010000   0.000000   0.100000   0.000000   0.000000  
; SASP-140
SASP-140         SASMH-144        SASMH-122        229.738499 0.010000   0.000000   0.100000   0.000000   0.000000  
; SASP-141
SASP-141         SASMH-145        SASMH-144        227.686507 0.010000   0.000000   0.100000   0.000000   0.000000  
; SASP-142
SASP-142         SASMH-146        SASMH-145        209.288433 0.010000   0.000000   0.100000   0.000000   0.000000  
; SASP-143
SASP-143         SASMH-147        SASMH-146        216.758055 0.010000   0.000000   0.100000   0.000000   0.000000  
; SASP-144
SASP-144         SASMH-127        SASMH-147        238.295462 0.010000   0.000000   0.100000   0.000000   0.000000  
; SASP-145
SASP-145         SASMH-148        SASMH-127        260.539337 0.010000   0.000000   0.100000   0.000000   0.000000  
; SASP-146
SASP-146         SASMH-149        SASMH-148        261.392476 0.010000   0.000000   0.100000   0.000000   0.000000  
; SASP-147
SASP-147         SASMH-150        SASMH-149        353.935697 0.010000   0.000000   0.100000   0.000000   0.000000  
; SASP-148
SASP-148         SASMH-151        SASMH-128        270.721457 0.010000   0.000000   0.100000   0.000000   0.000000  
; SASP-149