[TITLE]
;;Project Title/Notes

[OPTIONS]
;;Option             Value
FLOW_UNITS           GPM
INFILTRATION         HORTON
FLOW_ROUTING         DYNWAVE
LINK_OFFSETS         DEPTH
MIN_SLOPE            0
ALLOW_PONDING        YES
SKIP_STEADY_STATE    NO

START_DATE           01/01/2002
START_TIME           00:00:00
REPORT_START_DATE    01/01/2002
REPORT_START_TIME    00:00:00
END_DATE             01/01/2002
END_TIME             12:00:00
SWEEP_START          01/01
SWEEP_END            12/31
DRY_DAYS             0
REPORT_STEP          00:15:00
WET_STEP             00:15:00
DRY_STEP             24:00:00
ROUTING_STEP         0:00:10 

INERTIAL_DAMPING     NONE
NORMAL_FLOW_LIMITED  SLOPE
FORCE_MAIN_EQUATION  H-W
VARIABLE_STEP        0.00
LENGTHENING_STEP     10
MIN_SURFAREA         0.75
MAX_TRIALS           8
HEAD_TOLERANCE       0.001
SYS_FLOW_TOL         5
LAT_FLOW_TOL         5
MINIMUM_STEP         0.5
THREADS              8

[EVAPORATION]
;;Data Source    Parameters
;;-------------- ----------------
CONSTANT         0.0
DRY_ONLY         NO

[JUNCTIONS]
;;Name           Elevation  MaxDepth   InitDepth  SurDepth   Aponded   
;;-------------- ---------- ---------- ---------- ---------- ----------
H-021            941.500000 4.000000   0.000000   0.000000   0.000000  
H-022            942.590000 4.910000   0.000000   0.000000   0.000000  
H-023            955.220000 7.280000   0.000000   0.000000   0.000000  
H-024            965.220000 7.280000   0.000000   0.000000   0.000000  
H-025            970.080000 6.920000   0.000000   0.000000   0.000000  
H-026            973.220000 7.280000   0.000000   0.000000   0.000000  
H-027            974.960000 8.540000   0.000000   0.000000   0.000000  
H-028            976.690000 6.310000   0.000000   0.000000   0.000000  
H-029            978.040000 5.960000   0.000000   0.000000   0.000000  
H-10             1118.790000 4.040000   0.000000   0.000000   0.000000  
H-100            1096.190000 8.200000   0.000000   0.000000   0.000000  
H-101            1098.510000 8.460000   0.000000   0.000000   0.000000  
H-102            1100.430000 7.160000   0.000000   0.000000   0.000000  
H-103            1088.700000 15.290000  0.000000   0.000000   0.000000  
H-104            1089.450000 15.260000  0.000000   0.000000   0.000000  
H-105            1093.060000 10.290000  0.000000   0.000000   0.000000  
H-106            1093.970000 12.170000  0.000000   0.000000   0.000000  
H-107            1095.970000 11.550000  0.000000   0.000000   0.000000  
H-108            1096.310000 11.550000  0.000000   0.000000   0.000000  
H-109            1097.500000 11.800000  0.000000   0.000000   0.000000  
H-110            1099.950000 11.350000  0.000000   0.000000   0.000000  
H-111            1100.840000 12.120000  0.000000   0.000000   0.000000  
H-112            1108.720000 12.990000  0.000000   0.000000   0.000000  
H-113            1111.680000 10.430000  0.000000   0.000000   0.000000  
H-114            1113.370000 10.000000  0.000000   0.000000   0.000000  
H-115            1116.300000 9.650000   0.000000   0.000000   0.000000  
H-116            1123.800000 6.540000   0.000000   0.000000   0.000000  
H-117            1114.080000 10.920000  0.000000   0.000000   0.000000  
H-118            1124.720000 7.280000   0.000000   0.000000   0.000000  
H-119            1129.230000 6.100000   0.000000   0.000000   0.000000  
H-12             1113.270000 9.230000   0.000000   0.000000   0.000000  
H-120            1125.460000 6.980000   0.000000   0.000000   0.000000  
H-121            1129.300000 5.830000   0.000000   0.000000   0.000000  
H-122            1133.130000 5.860000   0.000000   0.000000   0.000000  
H-123            1090.320000 14.670000  0.000000   0.000000   0.000000  
H-124            1091.310000 12.690000  0.000000   0.000000   0.000000  
H-125            1092.000000 9.840000   0.000000   0.000000   0.000000  
H-126            1093.270000 9.850000   0.000000   0.000000   0.000000  
H-127            1095.930000 8.050000   0.000000   0.000000   0.000000  
H-128            1100.730000 7.930000   0.000000   0.000000   0.000000  
H-129            1104.670000 7.270000   0.000000   0.000000   0.000000  
H-13             1119.620000 3.850000   0.000000   0.000000   0.000000  
H-130            1109.260000 6.690000   0.000000   0.000000   0.000000  
H-131            1111.650000 6.090000   0.000000   0.000000   0.000000  
H-132            1113.390000 6.010000   0.000000   0.000000   0.000000  
H-133            1114.630000 6.360000   0.000000   0.000000   0.000000  
H-134            1116.770000 6.400000   0.000000   0.000000   0.000000  
H-135            1118.030000 7.230000   0.000000   0.000000   0.000000  
H-136            1119.340000 8.290000   0.000000   0.000000   0.000000  
H-137            1121.760000 7.380000   0.000000   0.000000   0.000000  
H-138            1124.460000 7.300000   0.000000   0.000000   0.000000  
H-139            1128.600000 6.910000   0.000000   0.000000   0.000000  
H-14             1116.020000 3.430000   0.000000   0.000000   0.000000  
H-140            1139.200000 5.800000   0.000000   0.000000   0.000000  
H-141            1136.400000 6.200000   0.000000   0.000000   0.000000  
H-142            1129.370000 6.880000   0.000000   0.000000   0.000000  
H-143            1126.800000 8.860000   0.000000   0.000000   0.000000  
H-144            1126.190000 9.110000   0.000000   0.000000   0.000000  
H-145            1129.620000 7.080000   0.000000   0.000000   0.000000  
H-146            1134.110000 6.990000   0.000000   0.000000   0.000000  
H-147            1135.630000 7.130000   0.000000   0.000000   0.000000  
H-148            1125.370000 6.930000   0.000000   0.000000   0.000000  
H-149            1122.520000 6.880000   0.000000   0.000000   0.000000  
H-15             1116.740000 3.950000   0.000000   0.000000   0.000000  
H-150            1119.690000 7.510000   0.000000   0.000000   0.000000  
H-151            1114.200000 7.100000   0.000000   0.000000   0.000000  
H-152            1112.120000 6.580000   0.000000   0.000000   0.000000  
H-153            1107.400000 8.800000   0.000000   0.000000   0.000000  
H-154            1111.940000 8.060000   0.000000   0.000000   0.000000  
H-155            1115.540000 7.060000   0.000000   0.000000   0.000000  
H-156            1124.050000 7.350000   0.000000   0.000000   0.000000  
H-157            1128.500000 7.100000   0.000000   0.000000   0.000000  
H-158            1130.100000 7.100000   0.000000   0.000000   0.000000  
H-159            1113.590000 8.210000   0.000000   0.000000   0.000000  
H-16             1118.130000 3.150000   0.000000   0.000000   0.000000  
H-160            1114.570000 8.480000   0.000000   0.000000   0.000000  
H-161            1118.200000 3.600000   0.000000   0.000000   0.000000  
H-162            1123.260000 7.040000   0.000000   0.000000   0.000000  
H-163            1129.140000 8.260000   0.000000   0.000000   0.000000  
H-164            1134.920000 7.380000   0.000000   0.000000   0.000000  
H-165            1138.420000 7.780000   0.000000   0.000000   0.000000  
H-166            1141.690000 6.410000   0.000000   0.000000   0.000000  
H-17             1121.290000 3.000000   0.000000   0.000000   0.000000  
H-18             1119.960000 4.500000   0.000000   0.000000   0.000000  
H-19             1121.000000 4.540000   0.000000   0.000000   0.000000  
H-20             1124.910000 3.940000   0.000000   0.000000   0.000000  
H-21             1126.090000 3.560000   0.000000   0.000000   0.000000  
H-210            978.310000 6.940000   0.000000   0.000000   0.000000  
H-211            978.560000 6.940000   0.000000   0.000000   0.000000  
H-212            985.810000 6.190000   0.000000   0.000000   0.000000  
H-213            990.810000 6.190000   0.000000   0.000000   0.000000  
H-214            997.060000 6.440000   0.000000   0.000000   0.000000  
H-215            1003.310000 4.690000   0.000000   0.000000   0.000000  
H-216            1005.560000 10.940000  0.000000   0.000000   0.000000  
H-217            1005.810000 5.690000   0.000000   0.000000   0.000000  
H-218            1008.060000 12.190000  0.000000   0.000000   0.000000  
H-219            1015.810000 6.690000   0.000000   0.000000   0.000000  
H-22             1128.620000 5.100000   0.000000   0.000000   0.000000  
H-220            1017.060000 5.940000   0.000000   0.000000   0.000000  
H-221            1019.560000 6.940000   0.000000   0.000000   0.000000  
H-222            1024.560000 5.940000   0.000000   0.000000   0.000000  
H-223            1026.560000 6.440000   0.000000   0.000000   0.000000  
H-224            1028.560000 6.940000   0.000000   0.000000   0.000000  
H-225            1030.560000 6.440000   0.000000   0.000000   0.000000  
H-226            1032.560000 5.940000   0.000000   0.000000   0.000000  
H-227            1034.560000 5.940000   0.000000   0.000000   0.000000  
H-228            1036.560000 6.940000   0.000000   0.000000   0.000000  
H-229            1041.560000 6.940000   0.000000   0.000000   0.000000  
H-23             1131.420000 3.970000   0.000000   0.000000   0.000000  
H-230            1046.560000 7.440000   0.000000   0.000000   0.000000  
H-231            1062.180000 6.320000   0.000000   0.000000   0.000000  
H-232            1072.860000 7.640000   0.000000   0.000000   0.000000  
H-24             1129.680000 8.190000   0.000000   0.000000   0.000000  
H-25             1133.250000 5.340000   0.000000   0.000000   0.000000  
H-26             1135.360000 5.580000   0.000000   0.000000   0.000000  
H-27             1141.900000 5.730000   0.000000   0.000000   0.000000  
H-28             1142.590000 6.410000   0.000000   0.000000   0.000000  
H-29             1143.300000 4.850000   0.000000   0.000000   0.000000  
H-30             1143.300000 5.850000   0.000000   0.000000   0.000000  
H-31             1144.560000 5.930000   0.000000   0.000000   0.000000  
H-32             1108.130000 7.590000   0.000000   0.000000   0.000000  
H-33             1107.400000 9.330000   0.000000   0.000000   0.000000  
H-34             1108.000000 10.180000  0.000000   0.000000   0.000000  
H-35             1106.400000 8.690000   0.000000   0.000000   0.000000  
H-36             1109.500000 8.220000   0.000000   0.000000   0.000000  
H-37             1104.800000 9.200000   0.000000   0.000000   0.000000  
H-38             1105.470000 4.620000   0.000000   0.000000   0.000000  
H-39             1107.100000 6.160000   0.000000   0.000000   0.000000  
H-40             1104.110000 8.190000   0.000000   0.000000   0.000000  
H-41             1107.560000 5.640000   0.000000   0.000000   0.000000  
H-42             1107.900000 6.060000   0.000000   0.000000   0.000000  
H-43             1105.320000 9.740000   0.000000   0.000000   0.000000  
H-44             1103.960000 9.340000   0.000000   0.000000   0.000000  
H-45             1102.760000 8.740000   0.000000   0.000000   0.000000  
H-46             1103.630000 8.540000   0.000000   0.000000   0.000000  
H-47             1107.810000 7.360000   0.000000   0.000000   0.000000  
H-48             1110.160000 9.740000   0.000000   0.000000   0.000000  
H-48A            1107.900000 9.720000   0.000000   0.000000   0.000000  
H-49             1115.190000 5.810000   0.000000   0.000000   0.000000  
H-5              1117.490000 4.600000   0.000000   0.000000   0.000000  
H-50             1098.270000 11.430000  0.000000   0.000000   0.000000  
H-51             1100.000000 8.900000   0.000000   0.000000   0.000000  
H-52             1101.260000 7.340000   0.000000   0.000000   0.000000  
H-53             1100.900000 7.100000   0.000000   0.000000   0.000000  
H-54             1097.350000 11.950000  0.000000   0.000000   0.000000  
H-55             1097.930000 13.470000  0.000000   0.000000   0.000000  
H-56             1099.290000 13.710000  0.000000   0.000000   0.000000  
H-57             1101.880000 7.320000   0.000000   0.000000   0.000000  
H-58             1095.590000 9.710000   0.000000   0.000000   0.000000  
H-59             1092.830000 10.150000  0.000000   0.000000   0.000000  
H-6              1111.190000 9.150000   0.000000   0.000000   0.000000  
H-60             1096.000000 7.890000   0.000000   0.000000   0.000000  
H-61             1091.340000 9.800000   0.000000   0.000000   0.000000  
H-62             1091.900000 11.050000  0.000000   0.000000   0.000000  
H-64             1087.920000 10.030000  0.000000   0.000000   0.000000  
H-65             1092.750000 2.250000   0.000000   0.000000   0.000000  
H-66             1093.810000 8.990000   0.000000   0.000000   0.000000  
H-67             1096.760000 9.840000   0.000000   0.000000   0.000000  
H-68             1100.530000 7.340000   0.000000   0.000000   0.000000  
H-69             1098.000000 8.900000   0.000000   0.000000   0.000000  
H-7              1117.670000 3.000000   0.000000   0.000000   0.000000  
H-70             1099.580000 7.820000   0.000000   0.000000   0.000000  
H-71             1101.560000 5.000000   0.000000   0.000000   0.000000  
H-73             1082.000000 12.800000  0.000000   0.000000   0.000000  
H-74             1080.400000 10.900000  0.000000   0.000000   0.000000  
H-75             1081.920000 4.080000   0.000000   0.000000   0.000000  
H-76             1082.420000 7.580000   0.000000   0.000000   0.000000  
H-77             1084.010000 14.490000  0.000000   0.000000   0.000000  
H-78             1085.610000 5.030000   0.000000   0.000000   0.000000  
H-79             1085.890000 5.110000   0.000000   0.000000   0.000000  
H-8              1118.160000 3.000000   0.000000   0.000000   0.000000  
H-80             1091.000000 10.640000  0.000000   0.000000   0.000000  
H-81             1093.000000 7.320000   0.000000   0.000000   0.000000  
H-82             1098.000000 6.320000   0.000000   0.000000   0.000000  
H-83             1080.400000 12.000000  0.000000   0.000000   0.000000  
H-86             1067.210000 9.430000   0.000000   0.000000   0.000000  
H-87             1072.000000 7.970000   0.000000   0.000000   0.000000  
H-88             1067.730000 9.470000   0.000000   0.000000   0.000000  
H-89             1072.000000 6.000000   0.000000   0.000000   0.000000  
H-9              1118.290000 3.000000   0.000000   0.000000   0.000000  
H-90             1073.000000 7.470000   0.000000   0.000000   0.000000  
H-91             1078.000000 6.640000   0.000000   0.000000   0.000000  
H-92             1077.700000 22.300000  0.000000   0.000000   0.000000  
H-93             1078.470000 7.840000   0.000000   0.000000   0.000000  
H-94             1078.400000 10.080000  0.000000   0.000000   0.000000  
H-96             1084.200000 13.470000  0.000000   0.000000   0.000000  
H-97             1085.860000 15.160000  0.000000   0.000000   0.000000  
H-98             1086.910000 13.090000  0.000000   0.000000   0.000000  
H-99             1088.110000 15.290000  0.000000   0.000000   0.000000  
H-WWPTP250       1072.900000 9.100000   0.000000   0.000000   0.000000  
HMR_HOUSING_H-84 1078.710000 7.840000   0.000000   1000.000000 0.000000  
HMR_MOTORPOOL_H-11 1119.110000 4.470000   0.000000   1000.000000 0.000000  
KAM_DOLE         941.470000 86.530000  0.000000   1000.000000 0.000000  
KAM_DOLE_CHAM    941.470000 86.530000  0.000000   0.000000   0.000000  
S-4-81           0.000000   0.000000   0.000000   0.000000   0.000000  

[OUTFALLS]
;;Name           Elevation  Type       Stage Data       Gated    Route To        
;;-------------- ---------- ---------- ---------------- -------- ----------------
KAM_DOLE_OUT     931.470000 FREE                        NO                       

[STORAGE]
;;Name           Elev.    MaxDepth   InitDepth  Shape      Curve Name/Params            N/A      Fevap    Psi      Ksat     IMD     
;;-------------- -------- ---------- ----------- ---------- ---------------------------- -------- --------          -------- --------
; HMR Motorpool
S-SPS217-H       1110.000000 7.000000   2.000000   FUNCTIONAL 0.000000  0.000000  16.003427 0.000000 0.000000
; KAM_Dole
S-SPS255-H       1104.900000 13.000000  2.000000   FUNCTIONAL 0.000000  0.000000  180.004872 0.000000 0.000000
; HMR Housing
S-SPS265-H       855.000000 5.670000   2.000000   FUNCTIONAL 0.000000  0.000000  19.634954 0.000000 0.000000

[CONDUITS]
;;Name           From Node        To Node          Length     Roughness  InOffset   OutOffset  InitFlow   MaxFlow   
;;-------------- ---------------- ---------------- ---------- ---------- ---------- ---------- ---------- ----------
; New Pipe
50               KAM_DOLE_CHAM    KAM_DOLE_OUT     200.000000 0.015000   0.000000   0.000000   0.000000   0.000000  
H-022_H-021      H-022            H-021            217.660000 0.015000   0.000000   0.000000   0.000000   0.000000  
H-023_H-022      H-023            H-022            315.940000 0.015000   0.000000   0.000000   0.000000   0.000000  
H-024_H-023      H-024            H-023            249.820000 0.015000   0.000000   0.000000   0.000000   0.000000  
H-025_H-024      H-025            H-024            221.160000 0.015000   0.000000   0.000000   0.000000   0.000000  
H-026_H-025      H-026            H-025            348.940000 0.015000   0.000000   0.000000   0.000000   0.000000  
H-027_H-026      H-027            H-026            347.020000 0.015000   0.000000   0.000000   0.000000   0.000000  
H-028_H-027      H-028            H-027            347.690000 0.015000   0.000000   0.000000   0.000000   0.000000  
H-029_H-028      H-029            H-028            268.290000 0.015000   0.000000   0.000000   0.000000   0.000000  
H-100_H-99       H-100            H-99             78.400000  0.015000   0.000000   0.000000   0.000000   0.000000  
H-101_H-100      H-101            H-100            65.800000  0.015000   0.000000   0.000000   0.000000   0.000000  
H-102_H-101      H-102            H-101            284.400000 0.015000   0.000000   0.000000   0.000000   0.000000  
H-103_H-99       H-103            H-99             150.400000 0.015000   0.000000   0.000000   0.000000   0.000000  
H-104_H-103      H-104            H-103            149.700000 0.015000   0.000000   0.000000   0.000000   0.000000  
H-105_H-104      H-105            H-104            209.400000 0.015000   0.000000   0.000000   0.000000   0.000000  
H-106_H-105      H-106            H-105            151.700000 0.015000   0.000000   0.000000   0.000000   0.000000  
H-107_H-106      H-107            H-106            276.000000 0.015000   0.000000   0.000000   0.000000   0.000000  
H-108_H-107      H-108            H-107            72.100000  0.015000   0.000000   0.000000   0.000000   0.000000  
H-109_H-108      H-109            H-108            231.900000 0.015000   0.000000   0.000000   0.000000   0.000000  
H-110_H-109      H-110            H-109            145.800000 0.015000   0.000000   0.000000   0.000000   0.000000  
H-111_H-110      H-111            H-110            186.100000 0.015000   0.000000   0.000000   0.000000   0.000000  
H-112_H-111      H-112            H-111            418.100000 0.015000   0.000000   0.000000   0.000000   0.000000  
H-113_H-112      H-113            H-112            130.500000 0.015000   0.000000   0.000000   0.000000   0.000000  
H-114_H-113      H-114            H-113            937.900000 0.015000   0.000000   0.000000   0.000000   0.000000  
H-115_H-114      H-115            H-114            104.100000 0.015000   0.000000   0.000000   0.000000   0.000000  
H-116_H-115      H-116            H-115            143.000000 0.015000   0.000000   0.000000   0.000000   0.000000  
H-117_H-114      H-117            H-114            131.700000 0.015000   0.000000   0.000000   0.000000   0.000000  
H-118_H-117      H-118            H-117            223.400000 0.015000   0.000000   0.000000   0.000000   0.000000  
H-119_H-118      H-119            H-118            157.300000 0.015000   0.000000   0.000000   0.000000   0.000000  
H-120_H-118      H-120            H-118            143.700000 0.015000   0.000000   0.000000   0.000000   0.000000  
H-121_H-120      H-121            H-120            128.500000 0.015000   0.000000   0.170000   0.000000   0.000000  
H-122_H-121      H-122            H-121            221.300000 0.015000   0.000000   0.000000   0.000000   0.000000  
H-123_H-104      H-123            H-104            169.400000 0.015000   0.000000   0.000000   0.000000   0.000000  
H-124_H-123      H-124            H-123            184.500000 0.015000   0.000000   0.000000   0.000000   0.000000  
H-125_H-124      H-125            H-124            149.600000 0.015000   0.000000   0.000000   0.000000   0.000000  
H-126_H-125      H-126            H-125            254.300000 0.015000   0.000000   0.000000   0.000000   0.000000  
H-127_H-126      H-127            H-126            143.900000 0.015000   0.000000   0.000000   0.000000   0.000000  
H-128_H-127      H-128            H-127            273.500000 0.015000   0.000000   0.000000   0.000000   0.000000  
H-129_H-128      H-129            H-128            176.100000 0.015000   0.000000   0.000000   0.000000   0.000000  
H-130_H-129      H-130            H-129            328.800000 0.015000   0.000000   0.000000   0.000000   0.000000  
H-131_H-130      H-131            H-130            176.200000 0.015000   0.000000   0.000000   0.000000   0.000000  
H-132_H-131      H-132            H-131            174.500000 0.015000   0.000000   0.000000   0.000000   0.000000  
H-133_H-132      H-133            H-132            127.600000 0.015000   0.000000   0.000000   0.000000   0.000000  
H-134_H-133      H-134            H-133            252.500000 0.015000   0.000000   0.000000   0.000000   0.000000  
H-135_H-134      H-135            H-134            89.500000  0.015000   0.000000   0.000000   0.000000   0.000000  
H-136_H-135      H-136            H-135            127.200000 0.015000   0.000000   0.000000   0.000000   0.000000  
H-137_H-136      H-137            H-136            110.200000 0.015000   0.000000   0.000000   0.000000   0.000000  
H-138_H-137      H-138            H-137            171.000000 0.015000   0.000000   0.000000   0.000000   0.000000  
H-139_H-138      H-139            H-138            345.500000 0.015000   0.000000   0.000000   0.000000   0.000000  
H-210_H-29       H-210            H-029            54.330000  0.015000   0.000000   0.000000   0.000000   0.000000  
H-211_H-210      H-211            H-210            250.000000 0.015000   0.000000   0.000000   0.000000   0.000000  
H-212_H-211      H-212            H-211            250.000000 0.015000   0.000000   0.000000   0.000000   0.000000  
H-213_H-212      H-213            H-212            250.000000 0.015000   0.000000   0.000000   0.000000   0.000000  
H-214_H-213      H-214            H-213            250.000000 0.015000   0.000000   0.000000   0.000000   0.000000  
H-215_H-214      H-215            H-214            250.000000 0.015000   0.000000   0.000000   0.000000   0.000000  
H-216_H-215      H-216            H-215            250.000000 0.015000   0.000000   0.000000   0.000000   0.000000  
H-217_H-216      H-217            H-216            250.000000 0.015000   0.000000   0.000000   0.000000   0.000000  
H-218_H-217      H-218            H-217            250.000000 0.015000   0.000000   0.000000   0.000000   0.000000  
H-219_H-218      H-219            H-218            250.000000 0.015000   0.000000   0.000000   0.000000   0.000000  
H-21_H-SPS25     H-021            S-SPS255-H       10.000000  0.015000   0.000000   0.000000   0.000000   0.000000  
H-220_H-219      H-220            H-219            250.000000 0.015000   0.000000   0.000000   0.000000   0.000000  
H-221_H-220      H-221            H-220            250.000000 0.015000   0.000000   0.000000   0.000000   0.000000  
H-222_H-221      H-222            H-221            250.000000 0.015000   0.000000   0.000000   0.000000   0.000000  
H-223_H-222      H-223            H-222            250.000000 0.015000   0.000000   0.000000   0.000000   0.000000  
H-224_H-223      H-224            H-223            250.000000 0.015000   0.000000   0.000000   0.000000   0.000000  
H-225_H-224      H-225            H-224            250.000000 0.015000   0.000000   0.000000   0.000000   0.000000  
H-226_H-225      H-226            H-225            250.000000 0.015000   0.000000   0.000000   0.000000   0.000000  
H-227_H-226      H-227            H-226            250.000000 0.015000   0.000000   0.000000   0.000000   0.000000  
H-228_H-227      H-228            H-227            250.000000 0.015000   0.000000   0.000000   0.000000   0.000000  
H-229_H-228      H-229            H-228            250.000000 0.015000   0.000000   0.000000   0.000000   0.000000  
H-230_H-229      H-230            H-229            250.000000 0.015000   0.000000   0.000000   0.000000   0.000000  
H-231_H-230      H-231            H-230            248.000000 0.015000   0.000000   0.000000   0.000000   0.000000  
H-232_H-231      H-232            H-231            235.000000 0.015000   0.000000   0.000000   0.000000   0.000000  
H-98_H-97        H-98             H-97             198.300000 0.015000   0.000000   0.000000   0.000000   0.000000  
H-99_H-98        H-99             H-98             222.000000 0.015000   0.000000   0.000000   0.000000   0.000000  
KAM_DOLE_FM      KAM_DOLE         KAM_DOLE_CHAM    200.000000 0.010000   0.000000   0.000000   0.000000   0.000000  
S-10/9-H         H-10             H-9              261.000000 0.015000   0.000000   0.000000   0.000000   0.000000  
S-11/10-H        HMR_MOTORPOOL_H-11 H-10             47.200000  0.010000   0.000000   0.250000   0.000000   0.000000  
S-12/SPS21       H-12             S-SPS217-H       137.800000 0.015000   0.000000   0.000000   0.000000   0.000000  
S-13/12-H        H-13             H-12             197.700000 0.015000   0.000000   0.170000   0.000000   0.000000  
S-14/12-H        H-14             H-12             244.200000 0.015000   0.000000   0.000000   0.000000   0.000000  
S-140/141-       H-140            H-141            338.500000 0.015000   0.000000   0.000000   0.000000   0.000000  
S-141/142-       H-141            H-142            193.600000 0.015000   0.000000   0.000000   0.000000   0.000000  
S-142/143-       H-142            H-143            119.800000 0.015000   0.000000   0.000000   0.000000   0.000000  
S-143/144-       H-143            H-144            51.000000  0.015000   0.000000   0.000000   0.000000   0.000000  
S-144/148-       H-144            H-148            113.900000 0.015000   0.000000   0.000000   0.000000   0.000000  
S-145/144-       H-145            H-144            143.200000 0.015000   0.000000   0.000000   0.000000   0.000000  
S-146/145-       H-146            H-145            218.300000 0.015000   0.000000   0.000000   0.000000   0.000000  
S-147/146-       H-147            H-146            152.900000 0.015000   0.000000   0.000000   0.000000   0.000000  
S-148/149-       H-148            H-149            232.500000 0.015000   0.000000   0.000000   0.000000   0.000000  
S-149/150-       H-149            H-150            201.600000 0.015000   0.000000   0.000000   0.000000   0.000000  
S-15/14-H        H-15             H-14             195.200000 0.015000   0.000000   0.170000   0.000000   0.000000  
S-150/151-       H-150            H-151            197.700000 0.015000   0.000000   0.000000   0.000000   0.000000  
S-151/152-       H-151            H-152            298.800000 0.015000   0.000000   0.000000   0.000000   0.000000  
S-152/153-       H-152            H-153            332.700000 0.015000   0.000000   0.160000   0.000000   0.000000  
S-153/44-H       H-153            H-44             176.900000 0.015000   0.000000   0.000000   0.000000   0.000000  
S-154/153-       H-154            H-153            255.800000 0.015000   0.000000   0.160000   0.000000   0.000000  
S-155/154-       H-155            H-154            394.400000 0.015000   0.000000   0.000000   0.000000   0.000000  
S-156/155-       H-156            H-155            226.700000 0.015000   0.000000   0.000000   0.000000   0.000000  
S-157/156-       H-157            H-156            321.200000 0.015000   0.000000   0.000000   0.000000   0.000000  
S-158/157-       H-158            H-157            155.100000 0.015000   0.000000   0.000000   0.000000   0.000000  
S-159/154-       H-159            H-154            276.300000 0.015000   0.000000   0.000000   0.000000   0.000000  
S-16/15-H        H-16             H-15             83.200000  0.015000   0.000000   0.000000   0.000000   0.000000  
S-160/159-       H-160            H-159            104.500000 0.015000   0.000000   0.000000   0.000000   0.000000  
S-161/160-       H-161            H-160            209.100000 0.015000   0.000000   0.000000   0.000000   0.000000  
S-162/161-       H-162            H-161            291.700000 0.015000   0.000000   0.000000   0.000000   0.000000  
S-163/162-       H-163            H-162            172.500000 0.015000   0.000000   0.000000   0.000000   0.000000  
S-164/163-       H-164            H-163            274.800000 0.015000   0.000000   0.000000   0.000000   0.000000  
S-165/164-       H-165            H-164            378.300000 0.015000   0.000000   0.000000   0.000000   0.000000  
S-166/165-       H-166            H-165            333.300000 0.015000   0.000000   0.000000   0.000000   0.000000  
S-17/16-H        H-17             H-16             189.100000 0.015000   0.000000   0.000000   0.000000   0.000000  
S-18/10-H        H-18             H-10             404.100000 0.015000   0.000000   0.000000   0.000000   0.000000  
S-19/18-H        H-19             H-18             397.200000 0.015000   0.000000   0.000000   0.000000   0.000000  
S-20/19-H        H-20             H-19             161.900000 0.015000   0.000000   0.000000   0.000000   0.000000  