[TITLE]
;;Project Title/Notes
   PRESENT CONDITIONS  100-YEAR 0.5-HOUR STORM EVENT  {NAP100Y30M.DAT} July 24  2001
   CENTRAL BUSINESS DISTRICT  CITY OF NAPERVILLE
   NAPERVILLE CBD EXTRAN MODEL
   5-15-2001
   SW 1 7 8

[OPTIONS]
;;Option             Value
FLOW_UNITS           CFS
INFILTRATION         HORTON
FLOW_ROUTING         DYNWAVE
LINK_OFFSETS         DEPTH
MIN_SLOPE            0
ALLOW_PONDING        NO
SKIP_STEADY_STATE    NO

START_DATE           01/01/1997
START_TIME           00:00:00
REPORT_START_DATE    01/01/1997
REPORT_START_TIME    00:00:00
END_DATE             01/02/1997
END_TIME             00:00:00
SWEEP_START          01/01
SWEEP_END            12/31
DRY_DAYS             5.000000
REPORT_STEP          00:05:00
WET_STEP             00:01:00
DRY_STEP             24:00:00
ROUTING_STEP         0:00:10 

INERTIAL_DAMPING     FULL
NORMAL_FLOW_LIMITED  SLOPE
FORCE_MAIN_EQUATION  H-W
VARIABLE_STEP        0.75
LENGTHENING_STEP     10
MIN_SURFAREA         12.557
MAX_TRIALS           8
HEAD_TOLERANCE       0.005
SYS_FLOW_TOL         5
LAT_FLOW_TOL         5
MINIMUM_STEP         0.5
THREADS              1

[EVAPORATION]
;;Data Source    Parameters
;;-------------- ----------------
CONSTANT         0.0
DRY_ONLY         NO

[RAINGAGES]
;;Name           Format    Interval SCF      Source    
;;-------------- --------- ------ ------ ----------
; July rainfall event
RAINGAGE-13      VOLUME    0.25     1.000000 TIMESERIES JULY_17_1996    

[SUBCATCHMENTS]
;;Name           Rain Gage        Outlet           Area     %Imperv  Width    %Slope   CurbLen  SnowPack        
;;-------------- ---------------- ---------------- -------- -------- -------- -------- -------- ----------------
; C10
C10              RAINGAGE-13      117              9.702000 90.000000 1748.000000 1.400000 0.000000                 
; C13
C13              RAINGAGE-13      JCT-10           1.811000 89.000000 760.000000 0.800000 0.000000                 
; C15
C15              RAINGAGE-13      232              10.672000 62.000000 1995.000000 2.200000 0.000000                 
; C20
C20              RAINGAGE-13      281              8.083000 44.000000 1322.000000 2.700000 0.000000                 
; C25
C25              RAINGAGE-13      1114             14.940000 34.000000 2407.000000 2.300000 0.000000                 
; C30
C30              RAINGAGE-13      384              6.748000 26.000000 1683.000000 3.300000 0.000000                 
; C33
C33              RAINGAGE-13      1115             7.161000 35.000000 1630.000000 2.200000 0.000000                 
; C35
C35              RAINGAGE-13      421              13.526000 40.000000 2129.000000 1.100000 0.000000                 
; C45
C45              RAINGAGE-13      1001             10.740000 35.000000 1598.000000 1.100000 0.000000                 
; C50
C50              RAINGAGE-13      387              19.176000 46.000000 2372.000000 1.500000 0.000000                 
; C55
C55              RAINGAGE-13      183              6.484000 48.000000 965.000000 3.000000 0.000000                 
; C57
C57              RAINGAGE-13      267              12.870000 48.000000 1682.000000 3.000000 0.000000                 
; C60
C60              RAINGAGE-13      323              15.378000 54.000000 1827.000000 1.600000 0.000000                 
; C65
C65              RAINGAGE-13      257              6.275000 61.000000 1253.000000 4.200000 0.000000                 
; D10
D10              RAINGAGE-13      136              8.565000 79.000000 1942.000000 1.200000 0.000000                 
; D15
D15              RAINGAGE-13      31               6.019000 56.000000 1507.000000 1.400000 0.000000                 
; D20
D20              RAINGAGE-13      19               6.935000 54.000000 1632.000000 3.300000 0.000000                 
; D21
D21              RAINGAGE-13      7                15.026000 21.000000 3133.000000 3.300000 0.000000                 
; D22
D22              RAINGAGE-13      17               14.015000 25.000000 1760.000000 1.300000 0.000000                 
; D25
D25              RAINGAGE-13      32               5.716000 24.000000 1382.000000 1.000000 0.000000                 
; D30
D30              RAINGAGE-13      201              14.421000 23.000000 2323.000000 0.200000 0.000000                 
; D32
D32              RAINGAGE-13      956              3.329000 52.000000 919.000000 0.400000 0.000000                 
; D35
D35              RAINGAGE-13      348              8.180000 24.000000 1684.000000 1.100000 0.000000                 
; D40
D40              RAINGAGE-13      269              10.247000 27.000000 1774.000000 1.500000 0.000000                 
; D45
D45              RAINGAGE-13      95               16.073000 34.000000 2661.000000 1.500000 0.000000                 
; D50
D50              RAINGAGE-13      187              8.512000 39.000000 1603.000000 1.800000 0.000000                 
; D55
D55              RAINGAGE-13      46               7.050000 26.000000 1182.000000 0.300000 0.000000                 
; D60
D60              RAINGAGE-13      200              12.705000 25.000000 2214.000000 1.200000 0.000000                 
; D65
D65              RAINGAGE-13      209              8.684000 24.000000 1318.000000 2.500000 0.000000                 
; D70
D70              RAINGAGE-13      105              7.318000 44.000000 1725.000000 1.600000 0.000000                 

[SUBAREAS]
;;Subcatchment   N-Imperv   N-Perv     S-Imperv   S-Perv     PctZero    RouteTo    PctRouted 
;;-------------- ---------- ---------- ---------- ---------- ---------- ---------- ----------
C10              0.020000   0.300000   0.100000   0.250000   25.000000  OUTLET    
C13              0.020000   0.300000   0.100000   0.250000   25.000000  OUTLET    
C15              0.020000   0.270000   0.100000   0.230000   25.000000  OUTLET    
C20              0.020000   0.230000   0.100000   0.210000   25.000000  OUTLET    
C25              0.020000   0.270000   0.100000   0.230000   25.000000  OUTLET    
C30              0.020000   0.290000   0.100000   0.250000   25.000000  OUTLET    
C33              0.020000   0.150000   0.100000   0.170000   25.000000  OUTLET    
C35              0.020000   0.240000   0.100000   0.220000   25.000000  OUTLET    
C45              0.020000   0.260000   0.100000   0.230000   25.000000  OUTLET    
C50              0.020000   0.260000   0.100000   0.230000   25.000000  OUTLET    
C55              0.020000   0.280000   0.100000   0.240000   25.000000  OUTLET    
C57              0.020000   0.280000   0.100000   0.240000   25.000000  OUTLET    
C60              0.020000   0.230000   0.100000   0.210000   25.000000  OUTLET    
C65              0.020000   0.270000   0.100000   0.230000   25.000000  OUTLET    
D10              0.020000   0.260000   0.100000   0.230000   25.000000  OUTLET    
D15              0.020000   0.290000   0.100000   0.250000   25.000000  OUTLET    
D20              0.020000   0.270000   0.100000   0.230000   25.000000  OUTLET    
D21              0.020000   0.260000   0.100000   0.230000   25.000000  OUTLET    
D22              0.020000   0.250000   0.100000   0.230000   25.000000  OUTLET    
D25              0.020000   0.250000   0.100000   0.220000   25.000000  OUTLET    
D30              0.020000   0.280000   0.100000   0.240000   25.000000  OUTLET    
D32              0.020000   0.280000   0.100000   0.240000   25.000000  OUTLET    
D35              0.020000   0.270000   0.100000   0.240000   25.000000  OUTLET    
D40              0.020000   0.250000   0.100000   0.220000   25.000000  OUTLET    
D45              0.020000   0.240000   0.100000   0.220000   25.000000  OUTLET    
D50              0.020000   0.240000   0.100000   0.220000   25.000000  OUTLET    
D55              0.020000   0.240000   0.100000   0.220000   25.000000  OUTLET    
D60              0.020000   0.250000   0.100000   0.220000   25.000000  OUTLET    
D65              0.020000   0.240000   0.100000   0.220000   25.000000  OUTLET    
D70              0.020000   0.250000   0.100000   0.230000   25.000000  OUTLET    

[INFILTRATION]
;;Subcatchment   MaxRate    MinRate    Decay      DryTime    MaxInfil  
;;-------------- ---------- ---------- ---------- ---------- ----------
C10              2.964877   0.093678   0.048595   5.210738   0.000000  
C13              2.930482   0.087487   0.047219   5.417107   0.000000  
C15              3.109700   0.113128   0.095199   6.216900   0.000000  
C20              3.528639   0.178531   0.173659   6.538237   0.000000  
C25              3.155536   0.117894   0.118520   6.929146   0.000000  
C30              3.013277   0.101990   0.052994   5.033483   0.000000  
C33              3.287156   0.140524   0.130330   6.440172   0.000000  
C35              2.998510   0.099732   0.049940   5.008938   0.000000  
C45              2.800426   0.064077   0.042017   6.197442   0.000000  
C50              2.995665   0.099220   0.049827   5.026009   0.000000  
C55              3.854735   0.228210   0.242315   7.136838   0.000000  
C57              3.000000   0.100000   0.050000   5.000000   0.000000  
C60              2.989050   0.098029   0.049562   5.065698   0.000000  
C65              3.367164   0.151418   0.155163   6.954059   0.000000  
D10              2.948203   0.090198   0.050881   5.446437   0.000000  
D15              2.831387   0.069650   0.043255   6.011677   0.000000  
D20              3.280697   0.137316   0.142685   7.058424   0.000000  
D21              2.531840   0.014967   0.035986   8.025472   0.000000  
D22              3.304573   0.135513   0.181260   8.643658   0.000000  
D25              2.500000   0.010000   0.030000   8.000000   0.000000  
D30              2.682519   0.042853   0.037301   6.904885   0.000000  
D32              2.634323   0.034178   0.035373   7.194059   0.000000  
D35              2.520556   0.013700   0.030822   7.876662   0.000000  
D40              2.578878   0.024198   0.033155   7.526732   0.000000  
D45              2.582804   0.024905   0.033312   7.503179   0.000000  
D50              2.568575   0.022344   0.032743   7.588548   0.000000  
D55              2.672981   0.041137   0.036919   6.962111   0.000000  
D60              2.673862   0.041295   0.036954   6.956829   0.000000  
D65              2.651394   0.037251   0.036056   7.091639   0.000000  
D70              2.511011   0.011982   0.030440   7.933932   0.000000  

[JUNCTIONS]
;;Name           Elevation  MaxDepth   InitDepth  SurDepth   Aponded   
;;-------------- ---------- ---------- ---------- ---------- ----------
1001             708.946000 4.400000   0.000000   0.000000   10.000000 
105              678.785000 5.000000   0.000000   0.000000   10.000000 
13               689.376000 5.540000   0.000000   0.000000   10.000000 
136              665.130000 11.170000  0.000000   0.000000   10.000000 
137              690.487000 9.690000   0.000000   0.000000   10.000000 
140              666.277000 8.000000   0.000000   0.000000   10.000000 
144              666.356000 6.250000   0.000000   0.000000   10.000000 
147              686.537000 9.320000   0.000000   0.000000   10.000000 
15               687.867000 5.400000   0.000000   0.000000   10.000000 
150              681.791000 7.420000   0.000000   0.000000   10.000000 
158              670.066000 7.000000   0.000000   0.000000   10.000000 
166              670.074000 8.430000   0.000000   0.000000   10.000000 
173              670.024000 9.000000   0.000000   0.000000   10.000000 
179              668.796000 5.010000   0.000000   0.000000   10.000000 
18               694.541000 5.700000   0.000000   0.000000   10.000000 
183              670.951000 3.200000   0.000000   0.000000   10.000000 
19               671.874000 10.430000  0.000000   0.000000   10.000000 
200              689.114000 6.000000   0.000000   0.000000   10.000000 
201              693.878000 8.750000   0.000000   0.000000   10.000000 
205              664.771000 13.170000  0.000000   0.000000   10.000000 
209              671.053000 12.160000  0.000000   0.000000   10.000000 
232              671.409000 6.500000   0.000000   0.000000   10.000000 
244              678.534000 5.080000   0.000000   0.000000   10.000000 
25               673.849000 3.000000   0.000000   0.000000   10.000000 
255              668.954000 3.000000   0.000000   0.000000   10.000000 
257              670.530000 15.560000  0.000000   0.000000   10.000000 
26               665.488000 3.000000   0.000000   0.000000   10.000000 
260              672.441000 5.000000   0.000000   0.000000   10.000000 
261              672.623000 5.000000   0.000000   0.000000   10.000000 
267              696.753000 4.000000   0.000000   0.000000   10.000000 
269              667.148000 13.730000  0.000000   0.000000   10.000000 
276              680.457000 1.950000   0.000000   0.000000   10.000000 
281              672.474000 6.620000   0.000000   0.000000   10.000000 
285              681.459000 5.000000   0.000000   0.000000   10.000000 
297              674.041000 8.000000   0.000000   0.000000   10.000000 
304              674.815000 7.500000   0.000000   0.000000   10.000000 
306              679.947000 5.500000   0.000000   0.000000   10.000000 
31               671.658000 3.000000   0.000000   0.000000   10.000000 
32               697.855000 5.150000   0.000000   0.000000   10.000000 
323              678.639000 16.650000  0.000000   0.000000   10.000000 
325              677.120000 6.350000   0.000000   0.000000   10.000000 
33               693.901000 5.000000   0.000000   0.000000   10.000000 
333              676.837000 8.000000   0.000000   0.000000   10.000000 
348              682.669000 4.990000   0.000000   0.000000   10.000000 
351              675.630000 11.880000  0.000000   0.000000   10.000000 
371              697.059000 6.810000   0.000000   0.000000   10.000000 
384              681.107000 10.000000  0.000000   0.000000   10.000000 
387              693.949000 13.850000  0.000000   0.000000   10.000000 
393              688.332000 5.080000   0.000000   0.000000   10.000000 
4                691.299000 6.870000   0.000000   0.000000   10.000000 
407              708.361000 5.000000   0.000000   0.000000   10.000000 
46               687.267000 15.050000  0.000000   0.000000   10.000000 
56               685.231000 7.280000   0.000000   0.000000   10.000000 
64               688.452000 13.820000  0.000000   0.000000   10.000000 
7                674.506000 6.580000   0.000000   0.000000   10.000000 
74               665.975000 3.000000   0.000000   0.000000   10.000000 
76               688.812000 13.460000  0.000000   0.000000   10.000000 
77               667.452000 3.000000   0.000000   0.000000   10.000000 
83               660.499000 11.450000  0.000000   0.000000   10.000000 
879              697.404000 4.930000   0.000000   0.000000   10.000000 
882              692.479000 8.260000   0.000000   0.000000   10.000000 
893              702.683000 5.000000   0.000000   0.000000   10.000000 
894              705.270000 2.990000   0.000000   0.000000   10.000000 
95               694.176000 3.000000   0.000000   0.000000   10.000000 
956              694.370000 6.500000   0.000000   0.000000   10.000000 
974              675.710000 7.000000   0.000000   0.000000   10.000000 
982              675.842000 7.500000   0.000000   0.000000   10.000000 
; New Junction
JCT-10           670.024000 9.425000   0.000000   0.000000   0.000000  
JCT-100          716.746000 4.000000   0.000000   0.000000   0.000000  
JCT-102          715.995000 3.000000   0.000000   0.000000   0.000000  
JCT-104          714.937000 6.000000   0.000000   0.000000   0.000000  
JCT-106          713.470000 7.000000   0.000000   0.000000   0.000000  
JCT-108          712.892000 4.000000   0.000000   0.000000   0.000000  
JCT-110          710.767000 4.000000   0.000000   0.000000   0.000000  
JCT-112          719.493000 4.000000   0.000000   0.000000   0.000000  
JCT-114          719.650000 4.000000   0.000000   0.000000   0.000000  
JCT-116          718.813000 4.000000   0.000000   0.000000   0.000000  
JCT-118          714.839000 4.000000   0.000000   0.000000   0.000000  
JCT-12           669.183000 13.420000  0.000000   0.000000   0.000000  
JCT-120          713.400000 4.000000   0.000000   0.000000   0.000000  
JCT-122          712.300000 4.000000   0.000000   0.000000   0.000000  
JCT-124          708.446000 4.000000   0.000000   0.000000   0.000000  
JCT-126          703.291000 4.000000   0.000000   0.000000   0.000000  
JCT-128          699.623000 4.000000   0.000000   0.000000   0.000000  
JCT-130          715.649000 4.000000   0.000000   0.000000   0.000000  
JCT-132          715.442000 4.000000   0.000000   0.000000   0.000000  
JCT-134          712.006000 4.000000   0.000000   0.000000   0.000000  
JCT-136          707.556000 4.000000   0.000000   0.000000   0.000000  
JCT-138          680.000000 31.625000  11.000000  1000.000000 100.000000
JCT-14           668.342000 28.400000  0.000000   0.000000   0.000000  
JCT-140          682.000000 30.487000  9.000000   1000.000000 100.000000
JCT-142          685.000000 24.939000  6.000000   1000.000000 100.000000
JCT-144          685.500000 17.229000  5.500000   1000.000000 100.000000
JCT-146          686.000000 22.413000  5.000000   1000.000000 100.000000
JCT-148          667.700000 41.488000  18.600000  1000.000000 100.000000
JCT-150          670.000000 45.972000  21.000000  1000.000000 100.000000
JCT-152          675.000000 34.638000  16.000000  1000.000000 100.000000
JCT-154          689.000000 6.991000   2.000000   1000.000000 100.000000
JCT-156          680.475000 4.000000   10.525000  1000.000000 0.000000  
JCT-16           696.880000 4.000000   0.000000   0.000000   0.000000  
JCT-160          671.026000 0.300000   0.000000   0.000000   0.000000  
JCT-162          670.162000 0.600000   0.000000   0.000000   0.000000  
JCT-164          667.588000 0.900000   0.000000   0.000000   0.000000  
JCT-166          666.943000 1.200000   0.000000   0.000000   0.000000  
JCT-168          664.867000 1.500000   0.000000   0.000000   0.000000  
JCT-170          663.964000 1.800000   0.000000   0.000000   0.000000  
JCT-18           689.975000 4.000000   0.000000   0.000000   0.000000  
JCT-20           682.574000 4.000000   0.000000   0.000000   0.000000  
JCT-22           669.113000 14.319000  0.000000   1000.000000 100.000000
JCT-24           704.832000 4.000000   0.000000   0.000000   0.000000  
JCT-26           699.613000 4.000000   0.000000   0.000000   0.000000  
JCT-28           685.146000 4.000000   0.000000   0.000000   0.000000  
JCT-30           671.613000 10.260000  0.000000   0.000000   0.000000  
JCT-32           710.184000 4.000000   0.000000   0.000000   0.000000  
JCT-34           703.120000 4.000000   0.000000   0.000000   0.000000  
JCT-36           687.394000 4.000000   0.000000   0.000000   0.000000  
JCT-38           673.113000 0.000000   0.000000   0.000000   0.000000  
JCT-40           703.446000 4.000000   0.000000   0.000000   0.000000  
JCT-42           699.390000 4.000000   0.000000   0.000000   0.000000  
JCT-44           697.161000 10.000000  0.000000   0.000000   0.000000  
JCT-46           681.314000 4.000000   0.000000   0.000000   0.000000  
JCT-48           674.613000 4.000000   0.000000   0.000000   0.000000  
JCT-50           724.281000 4.000000   0.000000   0.000000   0.000000  
JCT-52           721.000000 11.000000  0.000000   0.000000   0.000000  
JCT-54           717.669000 4.000000   0.000000   0.000000   0.000000  
JCT-56           688.054000 8.000000   0.000000   0.000000   0.000000  
JCT-58           686.054000 6.000000   0.000000   0.000000   0.000000  
JCT-60           684.211000 8.000000   0.000000   1000.000000 100.000000
JCT-62           725.409000 4.000000   0.000000   0.000000   0.000000  
JCT-64           711.328000 4.000000   0.000000   0.000000   0.000000  
JCT-66           697.568000 4.000000   0.000000   0.000000   0.000000  
JCT-68           692.002000 4.000000   0.000000   0.000000   0.000000  
JCT-70           717.841000 4.000000   0.000000   0.000000   0.000000  
JCT-72           710.396000 4.000000   0.000000   0.000000   0.000000  
JCT-74           699.813000 4.000000   0.000000   0.000000   0.000000  
JCT-76           697.165000 4.000000   0.000000   0.000000   0.000000  
JCT-78           712.187000 4.000000   0.000000   0.000000   0.000000  
JCT-80           710.358000 4.000000   0.000000   0.000000   0.000000  
JCT-82           715.107000 4.000000   0.000000   0.000000   0.000000  
JCT-84           714.034000 4.000000   0.000000   0.000000   0.000000  
JCT-86           725.622000 4.000000   0.000000   0.000000   0.000000  
JCT-88           722.005000 4.000000   0.000000   0.000000   0.000000  
JCT-90           718.885000 4.000000   0.000000   0.000000   0.000000  
JCT-92           715.360000 4.000000   0.000000   0.000000   0.000000  
JCT-94           711.000000 4.000000   0.000000   0.000000   0.000000  
JCT-96           702.000000 4.000000   0.000000   0.000000   0.000000  
JCT-98           720.798000 4.000000   0.000000   0.000000   0.000000  

[OUTFALLS]
;;Name           Elevation  Type       Stage Data       Gated    Route To        
;;-------------- ---------- ---------- ---------------- -------- ----------------
; New Outfall
OFALL-10         680.000000 FREE                        NO                       
OFALL-12         662.000000 FREE                        NO                       
VIADUCT1         696.000000 FIXED      662.000000       NO                       
VIADUCT2         692.000000 FIXED      662.000000       NO                       

[STORAGE]
;;Name           Elev.    MaxDepth   InitDepth  Shape      Curve Name/Params            N/A      Fevap    Psi      Ksat     IMD     
;;-------------- -------- ---------- ----------- ---------- ---------------------------- -------- --------          -------- --------
1114             683.640000 2.442000   0.000000   TABULAR    1114                         0.000000 0.000000
1115             682.500000 10.336000  0.000000   TABULAR    1115                         0.000000 0.000000
117              666.800000 4.942000   0.000000   TABULAR    117                          0.000000 0.000000
163              668.130000 4.821000   0.000000   TABULAR    163                          0.000000 0.000000
17               682.940000 9.783000   0.000000   TABULAR    17                           0.000000 0.000000
187              671.580000 5.440000   0.000000   TABULAR    187                          0.000000 0.000000
229              674.010000 3.010000   0.000000   TABULAR    229                          0.000000 0.000000
421              705.550000 3.255000   0.000000   TABULAR    421                          0.000000 0.000000
989              684.030000 3.447000   0.000000   TABULAR    989                          0.000000 0.000000
; North Ave.
STOR-10          680.000000 31.675000  0.000000   FUNCTIONAL 1200.000000  0.000000  1200.000000 0.000000 0.000000
; Franklin Ave.
STOR-12          685.000000 25.077000  0.000000   FUNCTIONAL 1200.000000  0.000000  0.000000 0.000000 0.000000
; Jefferson Ave.
STOR-14          657.500000 51.484000  0.000000   FUNCTIONAL 10000.000000  0.000000  0.000000 0.000000 0.000000
; Julian St.
STOR-16          652.830000 31.645000  0.000000   FUNCTIONAL 500.000000  0.000000  500.000000 0.000000 0.000000

[CONDUITS]
;;Name           From Node        To Node          Length     Roughness  InOffset   OutOffset  InitFlow   MaxFlow   
;;-------------- ---------------- ---------------- ---------- ---------- ---------- ---------- ---------- ----------
1001OF           1001             407              350.000000 0.030000   4.400000   5.000000   0.000000   0.000000  
105OF            105              136              312.000000 0.030000   5.010000   5.000000   0.000000   0.000000  
1114             1114             333              50.000000  0.015000   0.000000   0.000000   0.000000   0.000000  
117              117              83               167.998480 0.015000   0.000000   1.950000   0.000000   0.000000  
117OF            117              77               170.000000 0.035000   5.500000   9.440000   0.000000   0.000000  
1209             201              882              229.139590 0.015000   0.000000   0.000000   0.000000   0.000000  
1211             882              137              213.979530 0.015000   0.000000   0.000000   0.000000   0.000000  
1225             137              76               399.558570 0.015000   0.000000   0.000000   0.000000   0.000000  
1226             32               879              92.962520  0.015000   0.000000   0.000000   0.000000   0.000000  
1228             893              894              49.643620  0.015000   0.000000   0.000000   0.000000   0.000000  
1230             893              384              592.546590 0.015000   0.000000   0.000000   0.000000   0.000000  
1249             393              989              379.231210 0.015000   0.000000   0.000000   0.000000   0.000000  
1269             200              956              430.505950 0.015000   0.000000   0.000000   0.000000   0.000000  
1270             137              200              448.057400 0.015000   4.010000   0.000000   0.000000   0.000000  
1275             4                13               236.000000 0.015000   0.000000   0.000000   0.000000   0.000000  
1276             13               15               179.000000 0.015000   0.000000   0.000000   0.000000   0.000000  
1277             46               17               657.685420 0.015000   0.000000   0.000000   0.000000   0.000000  
1281             150              229              538.590660 0.015000   0.000000   0.000000   0.000000   0.000000  
1284             147              209              456.363870 0.015000   0.000000   0.000000   0.000000   0.000000  
1285             209              269              459.973890 0.015000   0.000000   0.000000   0.000000   0.000000  
1288             351              384              350.319100 0.015000   0.000000   0.000000   0.000000   0.000000  
1289             384              333              494.038890 0.015000   0.000000   0.000000   0.000000   0.000000  
1290             269              297              836.118160 0.015000   0.000000   0.000000   0.000000   0.000000  
1291             304              297              64.080860  0.015000   0.000000   0.000000   0.000000   0.000000  
1293             281              261              168.413800 0.015000   0.000000   0.000000   0.000000   0.000000  
1294             306              281              301.043150 0.015000   0.000000   0.000000   0.000000   0.000000  
1297             387              371              233.903280 0.015000   0.000000   0.000000   0.000000   0.000000  
1298             371              323              507.945270 0.015000   0.000000   0.000000   0.000000   0.000000  
1299             33               56               463.583540 0.015000   0.000000   0.000000   0.000000   0.000000  
1300             56               105              404.015880 0.015000   0.000000   0.000000   0.000000   0.000000  
1306             136              77               400.000000 0.020000   0.000000   0.000000   0.000000   0.000000  
1307             140              117              216.079570 0.015000   0.000000   0.000000   0.000000   0.000000  
1308             205              140              450.000000 0.015000   0.000000   0.000000   0.000000   0.000000  
1312             285              244              400.737640 0.015000   0.000000   0.000000   0.000000   0.000000  
1314             257              244              141.677350 0.015000   0.000000   0.000000   0.000000   0.000000  
1315             7                19               424.587680 0.015000   0.000000   0.000000   0.000000   0.000000  
1316             33               17               459.922330 0.015000   0.000000   5.320000   0.000000   0.000000  
1317             187              158              251.893990 0.015000   0.000000   0.000000   0.000000   0.000000  
1328             276              232              333.749180 0.015000   0.000000   0.000000   0.000000   0.000000  
136OF            136              140              260.000000 0.035000   5.000000   8.000000   0.000000   0.000000  
13OF             13               15               125.000000 0.035000   6.040000   5.830000   0.000000   0.000000  
140OF            140              117              220.000000 0.035000   8.000000   5.500000   0.000000   0.000000  
144              144              255              213.470000 0.015000   0.000000   2.590000   0.000000   0.000000  
144OF            144              255              90.000000  0.035000   6.250000   9.720000   0.000000   0.000000  
150OF            150              229              540.000000 0.035000   7.400000   2.000000   0.000000   0.000000  
158              158              136              153.180170 0.015000   0.000000   0.000000   0.000000   0.000000  
158OF            158              136              150.000000 0.030000   7.000000   5.000000   0.000000   0.000000  
15OF             15               17               70.000000  0.035000   5.400000   9.160000   0.000000   0.000000  
163OF            163              144              90.000000  0.030000   4.250000   6.250000   0.000000   0.000000  
166OF            166              187              207.000000 0.030000   5.190000   8.170000   0.000000   0.000000  
1791OF           179              163              90.000000  0.030000   5.010000   4.250000   0.000000   0.000000  
179OF            179              117              200.000000 0.030000   5.010000   5.500000   0.000000   0.000000  
17OF             17               7                400.000000 0.035000   9.160000   7.600000   0.000000   0.000000  