[OPTIONS]
;Option and Files Scenario Set: BASE
FLOW_UNITS		LPS
INFILTRATION		HORTON
FLOW_ROUTING		DYNWAVE
LINK_OFFSETS		DEPTH
MIN_SLOPE		0.000000
ALLOW_PONDING		NO
SKIP_STEADY_STATE 	NO
IGNORE_RAINFALL		NO
IGNORE_SNOWMELT		NO
IGNORE_GROUNDWATER	NO
IGNORE_QUALITY		NO

START_DATE		01/01/2002
START_TIME		00:00:00
REPORT_START_DATE	01/01/2002
REPORT_START_TIME	00:00
END_DATE		01/01/2002
END_TIME		08:00:00
SWEEP_START		01/01
SWEEP_END		12/31
DRY_DAYS		5.000000
REPORT_STEP		00:05:00
WET_STEP		01:00:00
DRY_STEP		23:00:00
ROUTING_STEP		300

INERTIAL_DAMPING	NONE
NORMAL_FLOW_LIMITED	BOTH
FORCE_MAIN_EQUATION	H-W
VARIABLE_STEP		0.750000
LENGTHENING_STEP	0
MIN_SURFAREA		0.000000
MINIMUM_STEP		0.5


[FILES]

[RAINGAGES]

[HYDROGRAPHS]

[TEMPERATURE]

[ADJUSTMENTS]

[SUBCATCHMENTS]

[SUBAREAS]

[INFILTRATION]

[AQUIFERS]

[GROUNDWATER]

[GWF]

[SNOWPACKS]

[JUNCTIONS]
; DUMMY
00005	8.200000	2.800000	0.000000	0.000000	0.000000
00010	10.200000	2.050000	0.000000	304.878049	0.000000
; CHWK MTN/SCHEYEY FM
00015	8.950000	2.450000	0.000000	0.000000	0.000000
; CHWK MTN
00020	10.440000	1.710000	0.000000	0.000000	0.000000
; CHWK MTN
00025	12.900000	2.450000	0.000000	0.000000	0.000000
; CHWK MTN
00030	13.200000	3.050000	0.000000	0.000000	0.000000
; CHWK MTN
00035	13.660000	1.990000	0.000000	0.000000	0.000000
; CHWK MTN
00040	13.860000	1.790000	0.000000	0.000000	0.000000
; CHWK MTN
00045	14.034000	2.066000	0.000000	0.000000	0.000000
; CHWK MTN
00050	15.280000	1.670000	0.000000	0.000000	0.000000
; CHWK MTN
00055	16.066000	1.634000	0.000000	0.000000	0.000000
; CHWK MTN
00060	18.010000	2.240000	0.000000	0.000000	0.000000
; CHWK MTN
00065	23.890000	1.710000	0.000000	0.000000	0.000000
; CHWK MTN
00070	24.720000	2.780000	0.000000	0.000000	0.000000
; CHWK MTN
00075	28.050000	1.570000	0.000000	0.000000	0.000000
; CHWK MTN
00080	35.720000	2.280000	0.000000	0.000000	0.000000
; CHWK MTN
00085	36.080000	3.440000	0.000000	0.000000	0.000000
; CHWK MTN
00090	36.700000	1.950000	0.000000	0.000000	0.000000
; CHWK MTN
00095	38.410000	2.160000	0.000000	0.000000	0.000000
; CHWK MTN
00100	41.400000	2.150000	0.000000	0.000000	0.000000
; SUNSET
001002	5.650000	3.860000	0.000000	0.000000	0.000000
; CHWK MTN
00105	53.080000	2.100000	0.000000	0.000000	0.000000
; CHWK MTN
00110	60.410000	2.160000	0.000000	0.000000	0.000000
; CHWK MTN
00115	64.450000	3.020000	0.000000	0.000000	0.000000
; CHWK MTN
00120	69.200000	2.210000	0.000000	0.000000	0.000000
; CHWK MTN/COPPER RIDGE
00125	72.900000	3.140000	0.000000	0.000000	0.000000
; Dummy Manhole
00128	9.150000	2.150000	0.000000	0.000000	0.000000
00130	11.550000	1.200000	0.000000	0.000000	0.000000
00135	11.550000	1.650000	0.000000	0.000000	0.000000
00140	13.820000	1.580000	0.000000	0.000000	0.000000
00145	93.810000	1.600000	0.000000	0.000000	0.000000
00150	98.260000	1.720000	0.000000	0.000000	0.000000
00155	104.700000	1.350000	0.000000	0.000000	0.000000
00160	105.910000	1.860000	0.000000	0.000000	0.000000
00165	106.400000	1.400000	0.000000	0.000000	0.000000
00170	107.170000	1.490000	0.000000	0.000000	0.000000
; LS1 - HODGINS
01002	6.700000	2.600000	0.000000	304.878049	0.000000
; FM01
01003	6.700000	0.000000	0.000000	304.878049	0.000000
; HODGINS/CORBOULD
01006	5.750000	2.800000	0.000000	0.000000	0.000000
; NEWMAN/HODGINS
01007	5.950000	2.917000	0.000000	0.000000	0.000000
; HODGINS
01008	6.000000	3.510000	0.000000	0.000000	0.000000
; SUNSET/NEWMAN R/W
01010	6.090000	2.810000	0.000000	0.000000	0.000000
; MENHOLM
01012	6.200000	3.190000	0.000000	0.000000	0.000000
; MENHOLM
01014	6.640000	2.350000	0.000000	0.000000	0.000000
; NEWMAN/MENHOLM
01015	6.520000	2.535000	0.000000	0.000000	0.000000
; MENHOLM
01016	6.940000	2.310000	0.000000	0.000000	0.000000
; MENHOLM/EDWARD
01018	7.250000	2.690000	0.000000	0.000000	0.000000
01024	8.000000	1.560000	0.000000	0.000000	0.000000
; GLENWOOD/WESTVIEW
01026	6.310000	2.470000	0.000000	0.000000	0.000000
; SUNSET/WESTVIEW
01027	5.950000	2.960000	0.000000	0.000000	0.000000
; WESTVIEW
01028	6.800000	2.240000	0.000000	0.000000	0.000000
; LENORA/SUNSET R/W
01030	7.140000	2.610000	0.000000	0.000000	0.000000
; LENORA/SUNSET R/W
01032	7.330000	2.300000	0.000000	0.000000	0.000000
; LENORA/SUNSET R/W
01034	7.780000	1.670000	0.000000	0.000000	0.000000
; LENORA
01036	7.300000	2.410000	0.000000	0.000000	0.000000
; LENORA
01038	7.940000	2.440000	0.000000	0.000000	0.000000
01040	8.310000	1.410000	0.000000	0.000000	0.000000
; LENORA
01042	7.640000	1.640000	0.000000	0.000000	0.000000
; LENORA/MAVIS
01044	8.000000	1.530000	0.000000	0.000000	0.000000
; LENORA
01046	8.280000	2.190000	0.000000	0.000000	0.000000
; WESTVIEW
01048	7.140000	1.580000	0.000000	0.000000	0.000000
; WESTVIEW/PANDORA
01050	7.270000	1.550000	0.000000	0.000000	0.000000
; PANDORA/PAISLEY
01052	7.610000	0.880000	0.000000	0.000000	0.000000
; PAISLEY
01054	8.040000	0.450000	0.000000	0.000000	0.000000
; WESTVIEW/DARWIN
01056	7.660000	1.720000	0.000000	0.000000	0.000000
; WESTVIEW/ASHWELL
01058	7.950000	2.250000	0.000000	0.000000	0.000000
; WESTVIEW
01060	7.190000	1.530000	0.000000	0.000000	0.000000
; GLENWOOD/BARTON
01062	6.410000	2.660000	0.000000	0.000000	0.000000
; BARTON
01064	6.990000	1.700000	0.000000	0.000000	0.000000
; BARTON/VINES
01066	7.150000	2.130000	0.000000	0.000000	0.000000
; VINES
01068	7.300000	1.540000	0.000000	0.000000	0.000000
; VINES
01070	7.330000	1.530000	0.000000	0.000000	0.000000
; GLENWOOD/BERNARD
01072	6.540000	2.450000	0.000000	0.000000	0.000000
; BERNARD
01078	7.060000	2.360000	0.000000	0.000000	0.000000
; BERNARD
01079	7.090000	2.360000	0.000000	0.000000	0.000000
; BERNARD
01080	7.470000	1.290000	0.000000	0.000000	0.000000
; BERNARD
01082	7.890000	0.450000	0.000000	0.000000	0.000000
; LABELLE/BERNARD
01083	7.520000	1.930000	0.000000	0.000000	0.000000
; BERNARD/CRESCENT
01084	6.670000	2.260000	0.000000	0.000000	0.000000
; LABELLE
01085	7.690000	1.500000	0.000000	0.000000	0.000000
; CRESCENT
01086	7.170000	1.900000	0.000000	0.000000	0.000000
; LABELLE
01087	7.730000	1.340000	0.000000	0.000000	0.000000
; CRESCENT
01088	7.280000	1.860000	0.000000	0.000000	0.000000
; CRESCENT/PARK
01090	7.440000	1.840000	0.000000	0.000000	0.000000
; PARK
01092	7.680000	1.460000	0.000000	0.000000	0.000000
; PARK
01094	7.890000	1.030000	0.000000	0.000000	0.000000
; PARK
01096	7.965000	0.455000	0.000000	0.000000	0.000000
; CRESCENT
01098	7.510000	1.770000	0.000000	0.000000	0.000000
; CRESCENT/MURRAY
01100	7.690000	1.650000	0.000000	0.000000	0.000000
; SUNSET/HODGINS
011001	5.400000	4.000000	0.000000	0.000000	0.000000
; WESTVIEW/SUNSET
011003	5.960000	2.950000	0.000000	0.000000	0.000000
; WESTVIEW/GLENWOOD
011004	6.090000	2.690000	0.000000	0.000000	0.000000
; MURRAY/LABELLE
01102	8.010000	1.290000	0.000000	0.000000	0.000000
; LABELLE
01104	8.260000	1.390000	0.000000	0.000000	0.000000
; CRESCENT
01106	7.780000	1.210000	0.000000	0.000000	0.000000
; BERNARD/EDWARD
01108	6.860000	2.630000	0.000000	0.000000	0.000000
; EDWARD
01110	7.550000	1.980000	0.000000	0.000000	0.000000
; EDWARD - DUMMY
01112	8.040000	1.520000	0.000000	0.000000	0.000000
; EDWARD
01114	7.380000	2.150000	0.000000	0.000000	0.000000
; EDWARD
01116	7.640000	1.630000	0.000000	0.000000	0.000000
; BERNARD/ALLARD
01118	6.950000	2.850000	0.000000	0.000000	0.000000
; ALLARD
01120	7.460000	2.140000	0.000000	0.000000	0.000000
; ALLARD
01122	7.650000	1.800000	0.000000	0.000000	0.000000
; ALLARD
01124	7.950000	1.310000	0.000000	0.000000	0.000000
; BERNARD/MARY
01126	7.100000	2.470000	0.000000	0.000000	0.000000
; MARY
01128	7.610000	2.490000	0.000000	0.000000	0.000000
; MARY
01130	7.890000	2.030000	0.000000	0.000000	0.000000
; MARY
01132	8.170000	1.570000	0.000000	0.000000	0.000000
; BERNARD/SCHOOL
01134	7.220000	2.630000	0.000000	0.000000	0.000000
; SCHOOL
01136	7.630000	1.390000	0.000000	0.000000	0.000000
; SCHOOL
01138	7.910000	1.600000	0.000000	0.000000	0.000000
; SCHOOL
01140	8.170000	2.120000	0.000000	0.000000	0.000000
; BERNARD
01142	7.320000	1.500000	0.000000	0.000000	0.000000
; BERNARD - DUMMY
01144	7.420000	2.030000	0.000000	0.000000	0.000000
; BERNARD/YALE
01146	7.470000	2.060000	0.000000	0.000000	0.000000
; YALE/CNR
01148	7.730000	1.570000	0.000000	0.000000	0.000000
; E. OF YALE
01150	7.840000	0.540000	0.000000	0.000000	0.000000
; YALE/RAILWAY
01152	7.500000	1.950000	0.000000	0.000000	0.000000
; HODGINS
01153	6.320000	0.670000	0.000000	0.000000	0.000000
; HODGINS
01154	6.490000	1.050000	0.000000	0.000000	0.000000
; HODGINS
01156	7.040000	0.750000	0.000000	0.000000	0.000000
; HODGINS
01158	7.290000	0.700000	0.000000	0.000000	0.000000
; HODGINS/MAVIS
01160	7.490000	2.920000	0.000000	0.000000	0.000000
; MAVIS/LENORA
01162	7.850000	1.890000	0.000000	0.000000	0.000000
; MAVIS/LENORA
01164	8.230000	1.540000	0.000000	0.000000	0.000000
; LENORA
01166	8.210000	1.330000	0.000000	0.000000	0.000000
; LENORA - DUMMY
01168	8.490000	1.230000	0.000000	0.000000	0.000000
; HODGINS/MAVIS
01170	7.500000	0.720000	0.000000	0.000000	0.000000
01171	7.830000	3.280000	0.000000	0.000000	0.000000
; HODGINS/ASHWELL
01172	7.780000	0.950000	0.000000	0.000000	0.000000
; ASHWELL/WOLFE
01174	8.230000	0.680000	0.000000	0.000000	0.000000
; WOLFE/AMADIS
01176	8.520000	1.200000	0.000000	0.000000	0.000000
; AMADIS
01178	8.800000	1.180000	0.000000	0.000000	0.000000
; ASHWELL
01180	8.410000	0.690000	0.000000	0.000000	0.000000
; ASHWELL
01182	8.600000	0.640000	0.000000	0.000000	0.000000
; ASHWELL/AMADIS
01184	8.740000	1.320000	0.000000	0.000000	0.000000
; ASHWELL
01186	8.840000	0.450000	0.000000	0.000000	0.000000
; ASHWELL
01190	8.940000	1.120000	0.000000	0.000000	0.000000
; ASHWELL
01192	9.140000	0.960000	0.000000	0.000000	0.000000
; HODGINS/CORBOULD
01194	6.650000	2.660000	0.000000	0.000000	0.000000
; HODGINS DUMMY
01195	7.035000	1.275000	0.000000	0.000000	0.000000
; HODGINS/EDWARD
01196	7.709000	0.601000	0.000000	0.000000	0.000000
; CORBOULD
01200	7.560000	0.670000	0.000000	0.000000	0.000000
; FAIRGROUNDS
01201	7.731000	0.649000	0.000000	0.000000	0.000000
; FAIRGROUNDS
01202	7.880000	0.870000	0.000000	0.000000	0.000000
; FAIRGROUNDS
01204	8.250000	0.550000	0.000000	0.000000	0.000000
; FAIRGROUNDS
01206	8.350000	0.450000	0.000000	0.000000	0.000000
; FAIRGROUNDS
01208	8.335000	0.455000	0.000000	0.000000	0.000000
; HODGINS/EDWARD
01214	5.910000	3.720000	0.000000	0.000000	0.000000
; EDWARD/HODGINS
01216	5.950000	3.650000	0.000000	0.000000	0.000000
; EDWARD/BRETT
01218	6.110000	3.540000	0.000000	0.000000	0.000000
; BRETT/MARY
01220	7.530000	2.120000	0.000000	0.000000	0.000000
; MARY
01222	8.090000	1.850000	0.000000	0.000000	0.000000
; MARY
01224	7.900000	1.660000	0.000000	0.000000	0.000000
; PATTEN/ONTARIO R/W
01226	8.180000	2.030000	0.000000	0.000000	0.000000
; EDWARD
01228	6.320000	3.220000	0.000000	0.000000	0.000000
; PATTEN
01230	7.690000	1.930000	0.000000	0.000000	0.000000
; PATTEN
01232	8.010000	1.690000	0.000000	0.000000	0.000000
; EDWARD/LANE
01234	6.390000	3.170000	0.000000	0.000000	0.000000
; SPADINA/PATTEN LANE
01236	8.110000	1.080000	0.000000	0.000000	0.000000
; MARY/LANE
01238	7.280000	2.170000	0.000000	0.000000	0.000000
; MARY/LANE
01240	7.380000	2.020000	0.000000	0.000000	0.000000
; SPADINA/PATTEN R/W
01242	7.890000	2.290000	0.000000	0.000000	0.000000
; EDWARD
01244	6.510000	2.940000	0.000000	0.000000	0.000000
; KIPP/SPADINA R/W
01246	8.210000	1.010000	0.000000	0.000000	0.000000
; KIPP/SPADINA R/W
01248	8.230000	1.460000	0.000000	0.000000	0.000000
; HODGINS
01250	6.980000	0.710000	0.000000	0.000000	0.000000
; HODGINS
01252	7.090000	0.820000	0.000000	0.000000	0.000000
; HODGINS/MARY
01254	7.310000	0.820000	0.000000	0.000000	0.000000
; HODGINS/SCHOOL
01256	7.530000	1.360000	0.000000	0.000000	0.000000
01257	7.510000	2.420000	0.000000	0.000000	0.000000
01259	8.590000	1.230000	0.000000	0.000000	0.000000
; HODGINS/YALE
01262	7.810000	0.620000	0.000000	0.000000	0.000000
; YALE/CHEAM
01264	7.830000	0.770000	0.000000	0.000000	0.000000
; YALE
01266	8.000000	0.850000	0.000000	0.000000	0.000000
; YALE/CHEAM
01268	8.250000	0.740000	0.000000	0.000000	0.000000
; YALE/MAIN
01270	8.390000	1.940000	0.000000	0.000000	0.000000
; MAIN/PATTEN
01272	8.670000	1.640000	0.000000	0.000000	0.000000
; PATTEN
01274	9.240000	0.490000	0.000000	0.000000	0.000000
; MAIN/SPADINA
01276	8.940000	1.220000	0.000000	0.000000	0.000000
; MAIN
01278	9.440000	0.890000	0.000000	0.000000	0.000000
; MAIN
01280	9.640000	0.890000	0.000000	0.000000	0.000000
; YALE
01282	8.540000	0.750000	0.000000	0.000000	0.000000
; YALE/SPADINA
01284	8.690000	0.850000	0.000000	0.000000	0.000000
; YALE - DUMMY
01286	8.940000	0.630000	0.000000	0.000000	0.000000
; YALE/KIPP
01290	8.970000	0.820000	0.000000	0.000000	0.000000
; KIPP
01292	9.339000	0.451000	0.000000	0.000000	0.000000
; YALE - DUMMY
01294	9.010000	0.790000	0.000000	0.000000	0.000000
; YALE/PRINCESS
01298	9.200000	0.950000	0.000000	0.000000	0.000000
; PRINCESS/LANE
01300	9.650000	0.700000	0.000000	0.000000	0.000000
; PRINCESS/YALE
01301	9.818000	0.182000	0.000000	0.000000	0.000000
; LANE/PRINCESS
01302	9.900000	0.450000	0.000000	0.000000	0.000000
; YALE/LANE
01304	9.330000	0.700000	0.000000	0.000000	0.000000
; YALE/WELLINGTON
01306	9.400000	1.520000	0.000000	0.000000	0.000000
; WELLINGTON/PRINCESS LN
01307	9.530000	1.170000	0.000000	0.000000	0.000000
; WELLINGTON/PRINCESS LN
01308	9.700000	1.260000	0.000000	0.000000	0.000000
; WELLINGTON/PRINCESS LN
01310	9.950000	0.500000	0.000000	0.000000	0.000000
; FAIRGROUNDS TO NEW LS
01312	5.120000	4.080000	0.000000	0.000000	0.000000
; CORBOULD
01314	5.190000	3.890000	0.000000	0.000000	0.000000
; CORBOULD
01316	5.280000	4.010000	0.000000	0.000000	0.000000
; CORBOULD DUMMY
01317	5.300000	1.580000	0.000000	0.000000	0.000000
; KIPP/CORBOULD
01318	5.380000	4.410000	0.000000	0.000000	0.000000
; EDWARD/KIPP
01322	6.540000	3.340000	0.000000	0.000000	0.000000
; EDWARD/LANE
01324	6.620000	3.060000	0.000000	0.000000	0.000000
; CORBOULD/LANE
01326	6.970000	2.940000	0.000000	0.000000	0.000000
; CORBOULD/KIPP
01328	7.050000	2.700000	0.000000	0.000000	0.000000
; KIPP
01330	7.150000	2.680000	0.000000	0.000000	0.000000
; KIPP/SPADINA R/W
01332	7.600000	1.890000	0.000000	0.000000	0.000000
; KIPP/SPADINA R/W
01334	8.330000	1.760000	0.000000	0.000000	0.000000
; KIPP
01336	7.330000	2.770000	0.000000	0.000000	0.000000
; KIPP/STANLEY
01338	7.480000	2.940000	0.000000	0.000000	0.000000
; SPADINA/KIPP
01340	7.660000	2.670000	0.000000	0.000000	0.000000
; N. FAIRGROUNDS
01342	7.750000	0.450000	0.000000	0.000000	0.000000
01343	7.900000	1.988000	0.000000	0.000000	0.000000
; SPADINA
01344	7.970000	1.480000	0.000000	0.000000	0.000000
; SPADINA/ASHWELL
01346	8.350000	1.970000	0.000000	0.000000	0.000000
; ASHWELL/SPADINA R/W
01347	8.660000	2.220000	0.000000	0.000000	0.000000
; SPADINA/JACKSON R/W
01348	8.130000	1.090000	0.000000	0.000000	0.000000
; SPADINA/JACKSON R/W
01350	8.340000	1.410000	0.000000	0.000000	0.000000
; SPADINA/JACKSON R/W
01352	8.470000	1.540000	0.000000	0.000000	0.000000
; SPADINA/JACKSON R/W
01354	8.650000	1.420000	0.000000	0.000000	0.000000
; SPADINA/JACKSON R/W
01356	8.210000	0.740000	0.000000	0.000000	0.000000
; JACKSON
01360	8.440000	0.980000	0.000000	0.000000	0.000000
01361	8.470000	0.950000	0.000000	0.000000	0.000000
01362	8.560000	0.830000	0.000000	0.000000	0.000000
01363	8.565000	0.905000	0.000000	0.000000	0.000000
01364	9.050000	0.420000	0.000000	0.000000	0.000000
01365	8.620000	1.070000	0.000000	0.000000	0.000000
; R/W S. OF JACKSON
01366	8.710000	1.650000	0.000000	0.000000	0.000000
; R/W S. OF JACKSON
01368	8.780000	1.260000	0.000000	0.000000	0.000000
; STANLEY/KIPP
01370	7.510000	2.980000	0.000000	0.000000	0.000000
; KIPP
01372	7.840000	2.900000	0.000000	0.000000	0.000000
; KIPP
01374	8.000000	2.440000	0.000000	0.000000	0.000000
; KIPP/ASHWELL
01376	8.290000	2.000000	0.000000	0.000000	0.000000
; STANLEY/PRINCESS-DUMMY
01378	8.600000	1.830000	0.000000	0.000000	0.000000
; PRINCESS/CORBOULD
01380	7.090000	3.000000	0.000000	0.000000	0.000000
; CORBOULD
01382	8.680000	1.770000	0.000000	0.000000	0.000000
; PRINCESS
01384	7.340000	2.490000	0.000000	0.000000	0.000000
; PRINCESS/STANLEY
01386	7.560000	2.870000	0.000000	0.000000	0.000000
; STANLEY/PRINCESS
01388	7.620000	2.700000	0.000000	0.000000	0.000000
; STANLEY
01390	8.720000	1.840000	0.000000	0.000000	0.000000
; PRINCESS
01392	7.960000	1.720000	0.000000	0.000000	0.000000
; PRINCESS
01394	8.220000	1.610000	0.000000	0.000000	0.000000
; PRINCESS/ASHWELL
01396	8.590000	1.390000	0.000000	0.000000	0.000000
; PRINCESS/KIPP R/W
01398	7.040000	3.020000	0.000000	0.000000	0.000000
; MARY
01400	7.250000	2.840000	0.000000	0.000000	0.000000
; MARY/PRINCESS
01402	7.460000	3.330000	0.000000	0.000000	0.000000
01403	9.890000	0.000000	0.000000	0.000000	0.000000
; PRINCESS
01404	7.770000	1.430000	0.000000	0.000000	0.000000
; PRINCESS/MAIN
01406	8.100000	0.840000	0.000000	0.000000	0.000000
; PRINCESS
01408	8.440000	0.830000	0.000000	0.000000	0.000000
; PRINCESS/YALE
01410	8.770000	0.500000	0.000000	0.000000	0.000000
; MARY/KIPP
01412	7.310000	2.790000	0.000000	0.000000	0.000000
; KIPP
01414	7.670000	2.340000	0.000000	0.000000	0.000000
; MARY/KIPP
01416	7.420000	2.590000	0.000000	0.000000	0.000000
; MARY
01418	8.150000	1.630000	0.000000	0.000000	0.000000
; KIPP/SPADINA R/W
01420	7.468000	0.542000	0.000000	0.000000	0.000000
; KIPP/SPADINA R/W
01422	7.562000	0.618000	0.000000	0.000000	0.000000
; KIPP/SPADINA R/W
01424	7.730000	2.070000	0.000000	0.000000	0.000000
; KIPP/SPADINA R/W
01426	7.930000	1.690000	0.000000	0.000000	0.000000
; KIPP/SPADINA R/W
01428	7.990000	1.500000	0.000000	0.000000	0.000000
; KIPP/SPADINA R/W
01430	8.220000	1.610000	0.000000	0.000000	0.000000
; KIPP/SPADINA R/W
01432	8.330000	1.340000	0.000000	0.000000	0.000000
; EDWARD
01434	6.750000	3.260000	0.000000	0.000000	0.000000
; WELLINGTON/PRINCESS RW
01436	8.640000	1.050000	0.000000	0.000000	0.000000
; EDWARD/LANE
01440	6.780000	3.400000	0.000000	0.000000	0.000000
; WELLINGTON/PRINCESS RW
01442	8.520000	1.870000	0.000000	0.000000	0.000000
; EDWARD/WELLINGTON
01444	6.860000	4.230000	0.000000	0.000000	0.000000
; WELLINGTON/ROBSON
01446	6.930000	3.940000	0.000000	0.000000	0.000000
; WELLINGTON/CORBOULD
01448	7.220000	3.630000	0.000000	0.000000	0.000000
; CORBOULD
01450	8.450000	1.810000	0.000000	0.000000	0.000000
; CORBOULD/HENDERSON
01452	8.720000	1.810000	0.000000	0.000000	0.000000
; WELLINGTON/STANLEY
01454	7.500000	3.440000	0.000000	0.000000	0.000000
; STANLEY/VICTORIA
01456	8.480000	1.690000	0.000000	0.000000	0.000000
; VICTORIA
01458	8.810000	1.020000	0.000000	0.000000	0.000000
; STANLEY/HENDERSON
01460	8.760000	1.390000	0.000000	0.000000	0.000000
; WELLINGTON
01462	7.750000	2.140000	0.000000	0.000000	0.000000
; WELLINGTON
01463	8.140000	1.880000	0.000000	0.000000	0.000000
; WELLINGTON/CARROLL
01464	7.910000	1.690000	0.000000	0.000000	0.000000
; CARROLL
01465	8.060000	1.740000	0.000000	0.000000	0.000000
; NORTHVIEW
01466	8.490000	1.060000	0.000000	0.000000	0.000000
; NORTHVIEW
01467	8.540000	1.010000	0.000000	0.000000	0.000000
; CARROLL
01468	8.130000	1.650000	0.000000	0.000000	0.000000
; CARROLL/REECE
01469	8.240000	1.610000	0.000000	0.000000	0.000000
; REECE
01470	8.670000	1.710000	0.000000	0.000000	0.000000
; CARROLL
01472	8.480000	2.010000	0.000000	0.000000	0.000000
; CARROLL/LEWIS
01474	8.590000	1.850000	0.000000	0.000000	0.000000
; LEWIS
01476	8.710000	1.590000	0.000000	0.000000	0.000000
; CARROLL/LEWIS
01478	8.630000	1.860000	0.000000	0.000000	0.000000
; LEWIS
01480	8.790000	1.770000	0.000000	0.000000	0.000000
; LEWIS
01482	8.900000	1.330000	0.000000	0.000000	0.000000
; REECE
01484	8.290000	1.540000	0.000000	0.000000	0.000000
; REECE
01486	8.360000	1.580000	0.000000	0.000000	0.000000
; REECE/SPANISH CORRAL
01488	8.460000	1.416000	0.000000	0.000000	0.000000
; SPANISH CORRAL
01490	8.700000	1.206000	0.000000	0.000000	0.000000
; REECE/HAMILTON
01492	8.650000	2.430000	0.000000	0.000000	0.000000
; HAMILTON/LEWIS
01494	8.880000	1.930000	0.000000	0.000000	0.000000
; WELLINGTON
01496	8.170000	2.120000	0.000000	0.000000	0.000000
; WELLINGTON/HAMILTON
01498	8.390000	2.280000	0.000000	0.000000	0.000000
; HAMILTON/REECE
01500	9.050000	1.730000	0.000000	0.000000	0.000000
; WELLINGTON
01502	8.600000	1.030000	0.000000	0.000000	0.000000
; WELLINGTON/FOX
01504	8.740000	1.440000	0.000000	0.000000	0.000000
; FOX
01506	9.120000	0.700000	0.000000	0.000000	0.000000
; ASHWELL
01507	9.240000	1.200000	0.000000	0.000000	0.000000
; WELLINGTON/ASHWELL
01508	8.800000	1.580000	0.000000	0.000000	0.000000
; N. OF WELLINGTON
01510	8.930000	0.950000	0.000000	0.000000	0.000000
; N. OF WELLINGTON
01512	9.060000	0.940000	0.000000	0.000000	0.000000
; WELLINGTON
01514	9.210000	1.090000	0.000000	0.000000	0.000000
; WELLINGTON
01516	9.470000	1.300000	0.000000	0.000000	0.000000
; ROBSON/COURT LANE
01518	7.010000	3.660000	0.000000	0.000000	0.000000
; COOK/COURT LANE
01520	7.350000	3.210000	0.000000	0.000000	0.000000
; COURT LANE - DUMMY
01522	7.400000	3.530000	0.000000	0.000000	0.000000
; N. OF COURT. LANE
01523	9.130000	1.570000	0.000000	0.000000	0.000000
; COLLEGE/COURT LANE
01524	7.580000	0.540000	0.000000	0.000000	0.000000
; Dummy MH - Inseratee
01534	7.660000	2.660000	0.000000	0.000000	0.000000
; MILL
01536	7.844000	2.456000	0.000000	0.000000	0.000000
; New Manhole
01537	7.680000	2.750000	0.000000	0.000000	0.000000
; YOUNG/COURT LANE
01539	7.830000	2.690000	0.000000	0.000000	0.000000
; YOUNG/VICTORIA
01542	8.128000	0.902000	0.000000	0.000000	0.000000
; YOUNG/VICTORIA
01546	8.140000	0.890000	0.000000	0.000000	0.000000
; VICTORIA
01548	8.270000	0.450000	0.000000	0.000000	0.000000
; YOUNG/BOLE
01551	8.430000	0.850000	0.000000	0.000000	0.000000
; BOLE
01552	8.727000	0.473000	0.000000	0.000000	0.000000
; BOLE
01556	8.740000	0.500000	0.000000	0.000000	0.000000
; CLEVELAND/NOWELL
01562	8.918000	0.662000	0.000000	0.000000	0.000000
; NOWELL
01564	9.049000	0.451000	0.000000	0.000000	0.000000
; CLEVLND/FLETCHER-DUMMY
01566	9.128000	0.452000	0.000000	0.000000	0.000000
; New Manhole
01568	7.950000	1.080000	0.000000	0.000000	0.000000
; New Manhole
01570	8.139000	0.891000	0.000000	0.000000	0.000000
; NOWELL/COURT LANE
01572	8.320000	0.810000	0.000000	0.000000	0.000000
; NOWELL/VICTORIA-DUMMY
01573	8.630000	0.610000	0.000000	0.000000	0.000000
; NOWELL
01574	8.740000	0.500000	0.000000	0.000000	0.000000
; NOWELL/YALE
01576	8.560000	0.790000	0.000000	0.000000	0.000000
; NOWELL/MAXWELL
01578	8.670000	1.040000	0.000000	0.000000	0.000000
; MAXWELL
01580	9.260000	0.640000	0.000000	0.000000	0.000000
; MAXWELL
01582	9.357000	0.453000	0.000000	0.000000	0.000000
; MAXWELL
01584	9.452000	0.448000	0.000000	0.000000	0.000000
; NOWELL/EMPRESS LANE
01586	8.800000	0.980000	0.000000	0.000000	0.000000
; EMPRESS LANE
01588	9.280000	1.740000	0.000000	0.000000	0.000000
; EMPRESS LANE
01590	9.470000	1.470000	0.000000	0.000000	0.000000
; EMPRESS LANE
01592	9.770000	1.280000	0.000000	0.000000	0.000000
; PRINCESS/EMPRESS LANE
01594	9.480000	0.500000	0.000000	0.000000	0.000000
; NOWELL/LANE
01596	9.100000	0.910000	0.000000	0.000000	0.000000
; PRINCESS/GORE R/W
01598	9.561000	0.449000	0.000000	0.000000	0.000000
; PRINCESS/GORE LANE
01600	9.280000	0.450000	0.000000	0.000000	0.000000
; GORE/FIRST LANE
01602	9.250000	0.670000	0.000000	0.000000	0.000000
; GORE/FIRST LANE-DUMMY
01603	9.270000	0.730000	0.000000	0.000000	0.000000
; YALE/FLETCHER
01604	8.750000	0.710000	0.000000	0.000000	0.000000
; FLETCHER/VICTORIA
01606	9.010000	0.450000	0.000000	0.000000	0.000000
; YALE/FLETCHER
01608	8.860000	0.790000	0.000000	0.000000	0.000000
; FLETCHER/MARGARET-DMMY
01610	9.100000	0.580000	0.000000	0.000000	0.000000
; MARGARET
01612	9.226000	0.454000	0.000000	0.000000	0.000000
; MARGARET/PRINCESS LANE
01614	9.211000	0.549000	0.000000	0.000000	0.000000
; MARGARET/PRINCESS LANE
01616	9.307000	0.453000	0.000000	0.000000	0.000000
; YALE/VICTOR
01618	9.050000	1.010000	0.000000	0.000000	0.000000
; YALE/VICTOR
01620	9.230000	0.770000	0.000000	0.000000	0.000000
; VICTOR/VICTORIA
01624	9.485000	0.495000	0.000000	0.000000	0.000000
; VICTOR
01626	9.534000	0.446000	0.000000	0.000000	0.000000
; YALE/WILLIAMS
01627	9.460000	0.670000	0.000000	0.000000	0.000000
; YALE/WILLIAMS
01628	9.530000	0.980000	0.000000	0.000000	0.000000
; WILLIAMS/YALE
01632	9.824000	0.446000	0.000000	0.000000	0.000000
; YALE
01634	9.910000	0.840000	0.000000	0.000000	0.000000
; YALE/CHARLES
01636	10.150000	0.600000	0.000000	0.000000	0.000000
; YALE/CHARLES
01638	10.338000	2.000000	0.000000	0.000000	0.000000
; YALE
01639	10.526000	2.000000	0.000000	0.000000	0.000000
; ROBSON/LANE
01640	7.180000	2.760000	0.000000	0.000000	0.000000
; TUPPER/LANE
01642	7.570000	2.790000	0.000000	0.000000	0.000000
; TUPPER
01644	8.210000	1.970000	0.000000	0.000000	0.000000
; LANE N. OF VICTORIA
01646	7.670000	2.860000	0.000000	0.000000	0.000000
; TUPPER/COOK LANE
01648	8.240000	1.730000	0.000000	0.000000	0.000000
; LANE N. OF VICTORIA
01650	7.890000	2.290000	0.000000	0.000000	0.000000
; R/W E. OF COOK
01652	8.037000	2.113000	0.000000	0.000000	0.000000
; LANE N. OF VICTORIA
01654	7.990000	1.950000	0.000000	0.000000	0.000000
; COOK/COLLEGE LANE
01656	8.360000	1.260000	0.000000	0.000000	0.000000
; COOK/COLLEGE LN-DUMMY
01658	8.220000	2.110000	0.000000	0.000000	0.000000
; R/W E. OF COOK
01660	8.292000	0.448000	0.000000	0.000000	0.000000
; COOK/COLLEGE LANE
01662	8.440000	1.340000	0.000000	0.000000	0.000000
; R/W S. OF HENDERSON
01664	8.540000	0.800000	0.000000	0.000000	0.000000
; ROBSON/HENDERSON
01666	7.290000	3.230000	0.000000	0.000000	0.000000
; HENDERSON/ROBSON
01668	7.380000	3.180000	0.000000	0.000000	0.000000
; HENDERSON/CORBOULD-DUM
01670	7.800000	2.720000	0.000000	0.000000	0.000000
; CORBOULD
01672	9.290000	1.770000	0.000000	0.000000	0.000000
; HENDERSON/CORBOULD
01674	7.840000	2.680000	0.000000	0.000000	0.000000
; HENDERSON/VICTORIA
01676	8.240000	1.770000	0.000000	0.000000	0.000000
; ROBSON/REECE
01678	7.530000	3.210000	0.000000	0.000000	0.000000
; REECE/CORBOULD
01680	7.850000	3.000000	0.000000	0.000000	0.000000
; CORBOULD
01682	8.080000	1.770000	0.000000	0.000000	0.000000
; CORBOULD/LEWIS
01684	8.350000	1.570000	0.000000	0.000000	0.000000
; LEWIS/FERNWAY R/W
01686	8.280000	0.540000	0.000000	0.000000	0.000000
; LEWIS/FERNWAY R/W
01688	8.320000	1.620000	0.000000	0.000000	0.000000
; LEWIS/FERNWAY R/W
01690	8.510000	0.000000	0.000000	0.000000	0.000000
; FERNWAY
01692	8.270000	1.700000	0.000000	0.000000	0.000000
; FERNWAY
01694	8.640000	1.890000	0.000000	0.000000	0.000000
; REECE/STANLEY
01696	8.150000	2.290000	0.000000	0.000000	0.000000
; REECE/NORTHVIEW
01698	8.430000	1.460000	0.000000	0.000000	0.000000
; NORTHVIEW
01700	8.550000	0.450000	0.000000	0.000000	0.000000
; NORTHVIEW/FERNWAY
01702	8.600000	1.760000	0.000000	0.000000	0.000000
; NORHVIEW
01704	8.720000	1.830000	0.000000	0.000000	0.000000
; FERNWAY
01706	8.790000	1.690000	0.000000	0.000000	0.000000
; LEWIS/FERNWAY R/W
01708	9.070000	1.460000	0.000000	0.000000	0.000000
; LEWIS
01712	7.750000	2.460000	0.000000	0.000000	0.000000
; LEWIS
01714	8.210000	1.650000	0.000000	0.000000	0.000000
; R/W N. OF LEWIS
01716	7.810000	1.940000	0.000000	0.000000	0.000000
; LANE N. OF LEWIS
01718	7.860000	2.430000	0.000000	0.000000	0.000000
; LANE N. OF LEWIS
01720	7.910000	2.350000	0.000000	0.000000	0.000000
; CORBOULD
01722	8.010000	1.850000	0.000000	0.000000	0.000000
; CORBOULD
01724	8.280000	1.750000	0.000000	0.000000	0.000000
; CORBOULD
01726	8.020000	1.950000	0.000000	0.000000	0.000000
; HERRON/LEWIS R/W
01728	8.380000	1.340000	0.000000	0.000000	0.000000
; NORTHVIEW
01730	8.670000	1.190000	0.000000	0.000000	0.000000
; NORTHVIEW
01732	8.770000	0.850000	0.000000	0.000000	0.000000
; CORBOULD
01734	8.170000	2.040000	0.000000	0.000000	0.000000
; MARSHALL/HERRON R/W
01736	8.430000	0.350000	0.000000	0.000000	0.000000
; MARSHALL/HERRON R/W
01738	8.690000	1.980000	0.000000	0.000000	0.000000
; MARSHALL/HERRON R/W
01740	8.750000	1.600000	0.000000	0.000000	0.000000
; MARSHALL/CORBOULD
01742	8.280000	1.950000	0.000000	0.000000	0.000000
; MARSHALL/NORLAND
01744	8.500000	1.760000	0.000000	0.000000	0.000000
; MARSHALL
01746	8.850000	1.660000	0.000000	0.000000	0.000000
; NORLAND/NELMES
01748	8.710000	1.230000	0.000000	0.000000	0.000000
; NELMES
01750	9.050000	1.010000	0.000000	0.000000	0.000000
; NORLAND
01752	8.850000	1.160000	0.000000	0.000000	0.000000
; NORLAND
01754	9.010000	1.300000	0.000000	0.000000	0.000000
; CORBOULD/HENLEY
01756	8.500000	2.000000	0.000000	0.000000	0.000000
; CORBOULD/BERKELEY
01758	8.870000	2.030000	0.000000	0.000000	0.000000
; CORBOULD
01760	9.060000	1.770000	0.000000	0.000000	0.000000
; CORBOULD/HARRISON R/W
01762	8.270000	2.320000	0.000000	0.000000	0.000000
; CORBOULD/HARRISON R/W
01764	8.290000	2.360000	0.000000	0.000000	0.000000
; HENLEY
01766	8.420000	1.700000	0.000000	0.000000	0.000000
; CORBOULD/HARRISON R/W
01768	8.640000	1.800000	0.000000	0.000000	0.000000
; LANE S. OF BERKELEY
01770	8.710000	1.840000	0.000000	0.000000	0.000000
; R/W N. OF LEWIS
01772	7.860000	1.890000	0.000000	0.000000	0.000000
; HARRISON/SIDNEY R/W
01774	8.060000	1.100000	0.000000	0.000000	0.000000
; HENLEY
01776	8.260000	1.920000	0.000000	0.000000	0.000000
; LANE S. OF BERKELEY
01778	8.500000	1.990000	0.000000	0.000000	0.000000
; BARBER
01780	8.660000	1.670000	0.000000	0.000000	0.000000
; R/W N. OF BERKELEY
01782	8.850000	2.980000	0.000000	0.000000	0.000000
; R/W N. OF BERKELEY
01784	9.000000	2.020000	0.000000	0.000000	0.000000
; R/W N. OF BERKELEY
01786	9.270000	1.990000	0.000000	0.000000	0.000000
; R/W N. OF BERKELEY
01788	9.160000	2.090000	0.000000	0.000000	0.000000
; R/W N. OF BERKELEY
01790	9.370000	1.650000	0.000000	0.000000	0.000000
; LANE S. OF BERKELEY
01792	8.930000	1.250000	0.000000	0.000000	0.000000
; R/W N. OF LEWIS
01794	8.220000	1.500000	0.000000	0.000000	0.000000
; LEWIS
01796	7.980000	2.580000	0.000000	0.000000	0.000000
; R/W E. OF SIDNEY-DUMMY
01798	8.050000	1.780000	0.000000	0.000000	0.000000
; R/W E. OF SIDNEY
01800	8.106000	0.454000	0.000000	0.000000	0.000000
; R/W E. OF SIDNEY
01802	8.140000	2.090000	0.000000	0.000000	0.000000
; SIDNEY/HILLIER R/W