[OPTIONS]
;Option and Files Scenario Set: BASE, Base Simulation Options
FLOW_UNITS	GPM
INFILTRATION	HORTON
FLOW_ROUTING	DYNWAVE
ALLOW_PONDING	NO
DRY_DAYS	5.000000
SKIP_STEADY_STATE 	NO
IGNORE_RAINFALL	YES
IGNORE_SNOWMELT	YES
IGNORE_GROUNDWATER	YES
IGNORE_QUALITY	NO
FORCE_MAIN_EQUATION	H-W
LINK_OFFSETS	DEPTH
MIN_SLOPE	0.000000
START_DATE	01/01/2002
START_TIME	00:00
END_DATE	01/01/2002
END_TIME	23:00
REPORT_START_DATE	01/01/2002
REPORT_START_TIME	00:00
SWEEP_START	01/01
SWEEP_END	12/31
WET_STEP	01:00:00
DRY_STEP	23:00:00
ROUTING_STEP	30
REPORT_STEP	00:05:00
INERTIAL_DAMPING	FULL
VARIABLE_STEP	0.000000
MINIMUM_STEP	0.5
LENGTHENING_STEP	0
MIN_SURFAREA	0.000000
NORMAL_FLOW_LIMITED	SLOPE

[FILES]

[RAINGAGES]

[HYDROGRAPHS]

[TEMPERATURE]

[ADJUSTMENTS]

[SUBCATCHMENTS]

[SUBAREAS]

[INFILTRATION]

[AQUIFERS]

[GROUNDWATER]

[GWF]

[SNOWPACKS]

[JUNCTIONS]
A10674	5295.600000	5311.000000	0.000000	0.000000	0.000000
A10681	5295.600098	5311.089844	0.000000	0.000000	0.000000
A10682	5295.299805	5312.049805	0.000000	0.000000	0.000000
A10891	5294.560059	5312.600098	0.000000	0.000000	0.000000
A10892	5293.930176	5315.419922	0.000000	0.000000	0.000000
A11602	5293.319824	5311.140137	0.000000	0.000000	0.000000
A11603	5292.140137	5306.970215	0.000000	0.000000	0.000000
A11614	5290.959961	5303.509766	0.000000	0.000000	0.000000
A11626	5287.859863	5297.390137	0.000000	0.000000	0.000000
A11629	5289.279785	5297.899902	0.000000	0.000000	0.000000
A11636	5286.120117	5309.919922	0.000000	0.000000	0.000000
A11637	5287.209961	5304.750000	0.000000	0.000000	0.000000
A11644	5283.720000	5311.069824	0.000000	0.000000	0.000000
A11741	5275.480000	5279.810059	0.000000	0.000000	0.000000
A11742	5270.590000	5279.930000	0.000000	0.000000	0.000000
A11743	5267.710000	5279.040000	0.000000	0.000000	0.000000
A11751	5257.970000	5273.290039	0.000000	0.000000	0.000000
A11752	5257.319824	5269.359863	0.000000	0.000000	0.000000
A11753	5251.640137	5266.180176	0.000000	0.000000	0.000000
A11754	5250.049805	5263.379883	0.000000	0.000000	0.000000
A11794	5200.770000	5212.410156	0.000000	0.000000	0.000000
A11801	5195.500000	5207.089844	0.000000	0.000000	0.000000
A11861	5240.750000	5249.160156	0.000000	0.000000	0.000000
A11862	5223.200195	5247.720215	0.000000	0.000000	0.000000
A11863	5222.259766	5250.939941	0.000000	0.000000	0.000000
A11871	5211.149902	5223.129883	0.000000	0.000000	0.000000
A11892	5205.569824	5213.370117	0.000000	0.000000	0.000000
A11963	5221.399902	5236.000000	0.000000	0.000000	0.000000
A11971	5217.799805	5232.500000	0.000000	0.000000	0.000000
A11972	5216.299805	5230.680000	0.000000	0.000000	0.000000
A11973	5210.479980	5222.149902	0.000000	0.000000	0.000000
A11981	5208.930176	5220.290039	0.000000	0.000000	0.000000
A11982	5207.959961	5217.370117	0.000000	0.000000	0.000000
A11983	5203.450195	5212.830078	0.000000	0.000000	0.000000
A12071	5145.000000	5152.000000	0.000000	0.000000	0.000000
A12714	5187.129883	5206.069824	0.000000	0.000000	0.000000
A12715	5186.859863	5206.479980	0.000000	0.000000	0.000000
A12716	5189.970000	5203.450000	0.000000	0.000000	0.000000
A12722	5184.419922	5212.750000	0.000000	0.000000	0.000000
A12723	5186.200195	5205.600098	0.000000	0.000000	0.000000
A12731	5183.479980	5204.500000	0.000000	0.000000	0.000000
A12732	5181.830078	5199.200195	0.000000	0.000000	0.000000
A12743	5180.959961	5196.000000	0.000000	0.000000	0.000000
A12744	5174.339844	5187.299805	0.000000	0.000000	0.000000
A12803	5191.729980	5205.430176	0.000000	0.000000	0.000000
A12852	5170.600098	5178.799805	0.000000	0.000000	0.000000
A12853	5168.500000	5176.600098	0.000000	0.000000	0.000000
A12854	5160.759766	5174.799805	0.000000	0.000000	0.000000
A12961	5151.610000	5162.840000	0.000000	0.000000	0.000000
A12962	5148.510000	5157.490000	0.000000	0.000000	0.000000
A12966	5154.259766	5165.529785	0.000000	0.000000	0.000000
A13061	5204.080000	5209.990000	0.000000	0.000000	0.000000
A13065	5195.850000	5206.630000	0.000000	0.000000	0.000000
A13070	5189.740000	5206.390000	0.000000	0.000000	0.000000
A13165	5183.640000	5204.290000	0.000000	0.000000	0.000000
A13169	5177.500000	5198.190000	0.000000	0.000000	0.000000
A13267	5171.390000	5186.160000	0.000000	0.000000	0.000000
A13268	5165.630000	5178.960000	0.000000	0.000000	0.000000
A13269	5156.700000	5171.530000	0.000000	0.000000	0.000000
A13367	5154.480000	5160.680000	0.000000	0.000000	0.000000
A13368	5141.690000	5152.710000	0.000000	0.000000	0.000000
A13369	5135.080000	5145.940000	0.000000	0.000000	0.000000
A13378	5126.690000	5139.100000	0.000000	0.000000	0.000000
A13379	5117.430000	5131.400000	0.000000	0.000000	0.000000
A13477	5110.710000	5121.030000	0.000000	0.000000	0.000000
A13478	5102.900000	5113.350000	0.000000	0.000000	0.000000
A13479	5089.960000	5105.520000	0.000000	0.000000	0.000000
A13481	5074.990000	5090.100000	0.000000	0.000000	0.000000
A13491	5069.360000	5078.560000	0.000000	0.000000	0.000000
A13492	5055.290000	5065.750000	0.000000	0.000000	0.000000
A13522	5099.740234	5109.000000	0.000000	0.000000	0.000000
A13523	5100.189941	5110.000000	0.000000	0.000000	0.000000
A13626	5096.709961	5103.000000	0.000000	0.000000	0.000000
A13732	5081.220215	5100.500000	0.000000	0.000000	0.000000
A13733	5086.970215	5099.000000	0.000000	0.000000	0.000000
A13831	5077.390137	5085.000000	0.000000	0.000000	0.000000
A13832	5077.990234	5088.479980	0.000000	0.000000	0.000000
A13841	5075.000000	5099.129883	0.000000	0.000000	0.000000
A13842	5076.399902	5089.549805	0.000000	0.000000	0.000000
A13854	5064.640137	5071.759766	0.000000	0.000000	0.000000
A13855	5068.089844	5076.470215	0.000000	0.000000	0.000000
A13856	5071.540039	5088.810059	0.000000	0.000000	0.000000
A13871	5059.029785	5068.870117	0.000000	0.000000	0.000000
A13881	5043.689941	5054.379883	0.000000	0.000000	0.000000
A13882	5048.540039	5057.549805	0.000000	0.000000	0.000000
A13981	5043.299805	5056.180176	0.000000	0.000000	0.000000
A13982	5042.930000	5057.540000	0.000000	0.000000	0.000000
A14403	5047.480000	5055.350000	0.000000	0.000000	0.000000
A14410	5040.090000	5046.750000	0.000000	0.000000	0.000000
A14512	5023.910000	5030.150000	0.000000	0.000000	0.000000
A14521	5023.910000	5030.150000	0.000000	0.000000	0.000000
A14621	5017.840000	5022.650000	0.000000	0.000000	0.000000
A14622	5012.370117	5025.000000	0.000000	0.000000	0.000000
A14721	5012.370000	5021.150000	0.000000	0.000000	0.000000
A14722	5011.810000	5023.230000	0.000000	0.000000	0.000000
A14831	5011.490000	5020.930000	0.000000	0.000000	0.000000
A14832	5010.710000	5021.000000	0.000000	0.000000	0.000000
A14833	5009.990000	5017.150000	0.000000	0.000000	0.000000
A14941	5009.060000	5018.750000	0.000000	0.000000	0.000000
B09794	5405.439941	5412.299805	0.000000	0.000000	0.000000
B09795	5402.970215	5415.930176	0.000000	0.000000	0.000000
B09797	5402.040000	5421.540000	0.000000	0.000000	0.000000
B10591	5364.000000	5374.000000	0.000000	0.000000	0.000000
B10592	5360.000000	5370.000000	0.000000	0.000000	0.000000
B10662	5372.000000	5382.000000	0.000000	0.000000	0.000000
B10671	5371.000000	5381.000000	0.000000	0.000000	0.000000
B10672	5370.000000	5380.000000	0.000000	0.000000	0.000000
B10681	5368.000000	5378.000000	0.000000	0.000000	0.000000
B10701	5399.770020	5410.700195	0.000000	0.000000	0.000000
B10710	5396.339844	5415.299805	0.000000	0.000000	0.000000
B10720	5393.370117	5407.709961	0.000000	0.000000	0.000000
B10721	5391.140000	5409.130000	0.000000	0.000000	0.000000
B10729	5389.600098	5406.600098	0.000000	0.000000	0.000000
B10731	5389.600098	5406.600098	0.000000	0.000000	0.000000
B10732	5387.799805	5400.899902	0.000000	0.000000	0.000000
B10742	5378.729980	5388.700195	0.000000	0.000000	0.000000
B10751	5377.509766	5387.200195	0.000000	0.000000	0.000000
B10761	5373.799805	5383.500000	0.000000	0.000000	0.000000
B11334	5331.000000	5342.000000	0.000000	0.000000	0.000000
B11346	5324.000000	5334.000000	0.000000	0.000000	0.000000
B11347	5315.000000	5325.000000	0.000000	0.000000	0.000000
B11354	5297.000000	5307.000000	0.000000	0.000000	0.000000
B11404	5350.000000	5360.000000	0.000000	0.000000	0.000000
B11411	5340.000000	5350.000000	0.000000	0.000000	0.000000
B11412	5338.000000	5348.000000	0.000000	0.000000	0.000000
B11421	5337.000000	5347.000000	0.000000	0.000000	0.000000
B11431	5335.000000	5345.000000	0.000000	0.000000	0.000000
B11432	5332.000000	5342.000000	0.000000	0.000000	0.000000
B11453	5295.000000	5305.000000	0.000000	0.000000	0.000000
B11461	5290.000000	5300.000000	0.000000	0.000000	0.000000
B11462	5283.000000	5293.000000	0.000000	0.000000	0.000000
B11472	5275.000000	5285.000000	0.000000	0.000000	0.000000
B11473	5268.000000	5278.000000	0.000000	0.000000	0.000000
B11501	5357.000000	5367.000000	0.000000	0.000000	0.000000
B11581	5260.000000	5270.000000	0.000000	0.000000	0.000000
B11582	5254.000000	5264.000000	0.000000	0.000000	0.000000
B11691	5240.000000	5250.000000	0.000000	0.000000	0.000000
B11692	5250.000000	5260.000000	0.000000	0.000000	0.000000
B12073	5144.000000	5151.000000	0.000000	0.000000	0.000000
B12074	5143.000000	5150.000000	0.000000	0.000000	0.000000
B12081	5140.000000	5147.000000	0.000000	0.000000	0.000000
B12082	5132.000000	5140.000000	0.000000	0.000000	0.000000
B12083	5130.000000	5137.000000	0.000000	0.000000	0.000000
B12191	5125.000000	5133.000000	0.000000	0.000000	0.000000
B12192	5122.000000	5130.000000	0.000000	0.000000	0.000000
B12193	5120.000000	5127.000000	0.000000	0.000000	0.000000
B12194	5112.000000	5120.000000	0.000000	0.000000	0.000000
B12195	5111.000000	5120.000000	0.000000	0.000000	0.000000
B12201	5108.000000	5118.000000	0.000000	0.000000	0.000000
B12292	5110.000000	5120.000000	0.000000	0.000000	0.000000
B12293	5109.000000	5119.000000	0.000000	0.000000	0.000000
B12703	5230.000000	5240.000000	0.000000	0.000000	0.000000
B12711	5220.000000	5230.000000	0.000000	0.000000	0.000000
B12712	5210.000000	5220.000000	0.000000	0.000000	0.000000
B12721	5195.000000	5215.000000	0.000000	0.000000	0.000000
B12831	5190.000000	5210.000000	0.000000	0.000000	0.000000
B12832	5196.000000	5206.000000	0.000000	0.000000	0.000000
B12932	5191.000000	5201.000000	0.000000	0.000000	0.000000
B12941	5190.000000	5200.000000	0.000000	0.000000	0.000000
B12943	5188.000000	5198.000000	0.000000	0.000000	0.000000
B12944	5185.320000	5196.300000	0.000000	0.000000	0.000000
B13043	5009.660000	5017.040000	0.000000	0.000000	0.000000
B13081	5042.670000	5059.640000	0.000000	0.000000	0.000000
B13173	5043.209961	5064.060059	0.000000	0.000000	0.000000
B13202	5107.000000	5116.000000	0.000000	0.000000	0.000000
B13204	5106.000000	5115.000000	0.000000	0.000000	0.000000
B13271	5042.049805	5079.689941	0.000000	0.000000	0.000000
B13311	5105.000000	5114.000000	0.000000	0.000000	0.000000
B13312	5104.000000	5113.000000	0.000000	0.000000	0.000000
B13315	5103.000000	5112.000000	0.000000	0.000000	0.000000
B13316	5102.000000	5110.000000	0.000000	0.000000	0.000000
B13321	5100.000000	5108.000000	0.000000	0.000000	0.000000
B13371	5041.670000	5072.770000	0.000000	0.000000	0.000000
B13372	5041.300000	5070.830000	0.000000	0.000000	0.000000
B13431	5095.000000	5105.000000	0.000000	0.000000	0.000000
B13441	5094.000000	5105.000000	0.000000	0.000000	0.000000
B13515	5030.900000	5039.470000	0.000000	0.000000	0.000000
B13543	5092.810059	5105.500000	0.000000	0.000000	0.000000
B13544	5093.000000	5105.000000	0.000000	0.000000	0.000000
B13551	5078.410156	5094.450195	0.000000	0.000000	0.000000
B13552	5073.669922	5086.600098	0.000000	0.000000	0.000000
B13553	5071.569824	5083.209961	0.000000	0.000000	0.000000
B13581	5039.540039	5057.520020	0.000000	0.000000	0.000000
B13591	5039.129883	5055.080078	0.000000	0.000000	0.000000
B13661	5066.399902	5072.500000	0.000000	0.000000	0.000000
B13662	5060.850098	5066.100098	0.000000	0.000000	0.000000
B13663	5069.859863	5076.390137	0.000000	0.000000	0.000000
B13772	5058.000000	5064.000000	0.000000	0.000000	0.000000
B13781	5054.000000	5060.000000	0.000000	0.000000	0.000000
B13791	5037.919922	5045.870117	0.000000	0.000000	0.000000
B13802	5029.000000	5040.000000	0.000000	0.000000	0.000000
B13883	5046.000000	5052.000000	0.000000	0.000000	0.000000
B13891	5040.000000	5045.000000	0.000000	0.000000	0.000000
B13983	5039.370000	5046.400000	0.000000	0.000000	0.000000
B14041	5007.810000	5022.160000	0.000000	0.000000	0.000000
B14042	5007.420000	5022.000000	0.000000	0.000000	0.000000
B14051	5008.290000	5020.750000	0.000000	0.000000	0.000000
B14141	5006.200000	5019.750000	0.000000	0.000000	0.000000
B14234	5003.470000	5022.690000	0.000000	0.000000	0.000000
B14242	5004.960000	5020.760000	0.000000	0.000000	0.000000
B14331	5002.300000	5026.240000	0.000000	0.000000	0.000000
B14421	5000.970000	5020.500000	0.000000	0.000000	0.000000
B14422	4999.750000	5029.370000	0.000000	0.000000	0.000000
B14521	4999.090000	5006.600000	0.000000	0.000000	0.000000
B14522	4998.390000	5005.260000	0.000000	0.000000	0.000000
B14621	4997.740000	5005.000000	0.000000	0.000000	0.000000
B14622	4996.410000	5004.110000	0.000000	0.000000	0.000000
B14711	4995.150000	5002.590000	0.000000	0.000000	0.000000
B14712	4994.650000	5001.100000	0.000000	0.000000	0.000000
B14801	5030.000000	5042.000000	0.000000	0.000000	0.000000
B14811	4993.440000	5005.730000	0.000000	0.000000	0.000000
B14901	4989.700000	5011.960000	0.000000	0.000000	0.000000
B14902	4990.810000	5014.410000	0.000000	0.000000	0.000000
B14903	4988.760000	5013.810000	0.000000	0.000000	0.000000
B14904	5000.000000	5015.000000	0.000000	0.000000	0.000000
B14911	4992.270000	5006.310000	0.000000	0.000000	0.000000
B16822	4986.520020	4997.790039	0.000000	0.000000	0.000000
B16921	4985.939941	4997.560059	0.000000	0.000000	0.000000
B16922	4985.680176	4997.229980	0.000000	0.000000	0.000000
B17391	5117.899902	5136.439941	0.000000	0.000000	0.000000
B17392	5118.500000	5134.209961	0.000000	0.000000	0.000000
B17471	5113.169922	5117.270020	0.000000	0.000000	0.000000
B17481	5113.350098	5117.500000	0.000000	0.000000	0.000000
B17482	5114.649902	5125.399902	0.000000	0.000000	0.000000
B17491	5115.910156	5138.220215	0.000000	0.000000	0.000000
B17492	5117.109863	5139.310059	0.000000	0.000000	0.000000
B17493	5117.410156	5137.069824	0.000000	0.000000	0.000000
B17571	5112.120117	5121.319824	0.000000	0.000000	0.000000
B17671	5106.790039	5120.160156	0.000000	0.000000	0.000000
B17672	5107.020020	5121.049805	0.000000	0.000000	0.000000
B17673	5108.649902	5128.529785	0.000000	0.000000	0.000000
B17674	5108.859863	5128.350098	0.000000	0.000000	0.000000
B17675	5110.609863	5129.129883	0.000000	0.000000	0.000000
B17764	5101.330078	5107.100098	0.000000	0.000000	0.000000
B17772	5113.629883	5120.089844	0.000000	0.000000	0.000000
B17773	5105.689941	5119.450195	0.000000	0.000000	0.000000
B17774	5104.399902	5117.209961	0.000000	0.000000	0.000000
B17781	5118.770020	5131.479980	0.000000	0.000000	0.000000
B17791	5128.770020	5149.049805	0.000000	0.000000	0.000000
B17792	5124.140000	5140.000000	0.000000	0.000000	0.000000
B17793	5144.669922	5155.479980	0.000000	0.000000	0.000000
B17794	5130.709961	5149.930176	0.000000	0.000000	0.000000
B17861	5098.029785	5106.959961	0.000000	0.000000	0.000000
B17862	5096.120117	5106.200195	0.000000	0.000000	0.000000
B17891	5148.799805	5156.479980	0.000000	0.000000	0.000000
B17961	5094.089844	5104.589844	0.000000	0.000000	0.000000
B17962	5092.009766	5107.120117	0.000000	0.000000	0.000000
B18701	5138.359863	5157.620117	0.000000	0.000000	0.000000
B18707	5138.360000	5160.540000	0.000000	0.000000	0.000000
B18711	5147.689941	5164.799805	0.000000	0.000000	0.000000
B18721	5156.740234	5171.500000	0.000000	0.000000	0.000000
B18722	5165.939941	5181.459961	0.000000	0.000000	0.000000
B18731	5174.540039	5193.240234	0.000000	0.000000	0.000000
B18732	5177.680176	5202.479980	0.000000	0.000000	0.000000
B18733	5180.520020	5202.359863	0.000000	0.000000	0.000000
B18741	5178.370117	5200.609863	0.000000	0.000000	0.000000
B18801	5148.700195	5159.000000	0.000000	0.000000	0.000000
B18831	5182.000000	5202.290039	0.000000	0.000000	0.000000
B18832	5186.709961	5201.390137	0.000000	0.000000	0.000000
B18931	5187.120117	5201.080078	0.000000	0.000000	0.000000
B18932	5187.600098	5200.000000	0.000000	0.000000	0.000000
B18933	5192.100098	5200.299805	0.000000	0.000000	0.000000
B18941	5196.000000	5203.629883	0.000000	0.000000	0.000000
B18942	5205.080078	5218.000000	0.000000	0.000000	0.000000
B18951	5215.290039	5230.180176	0.000000	0.000000	0.000000
B18961	5226.459961	5242.859863	0.000000	0.000000	0.000000
B18971	5237.709961	5255.209961	0.000000	0.000000	0.000000
B18972	5243.850098	5262.370117	0.000000	0.000000	0.000000
B18973	5244.540039	5263.180176	0.000000	0.000000	0.000000
B18981	5252.680176	5268.149902	0.000000	0.000000	0.000000
B18991	5265.009766	5279.759766	0.000000	0.000000	0.000000
B18992	5277.220215	5295.839844	0.000000	0.000000	0.000000
C11793	5106.799805	5113.399902	0.000000	0.000000	0.000000
C11794	5107.100098	5123.600098	0.000000	0.000000	0.000000
C12041	5179.810000	5194.700000	0.000000	0.000000	0.000000
C12042	5161.830000	5173.200000	0.000000	0.000000	0.000000
C12043	5161.830000	5173.200000	0.000000	0.000000	0.000000
C12131	5161.830000	5173.200000	0.000000	0.000000	0.000000
C12141	5161.160000	5168.350000	0.000000	0.000000	0.000000
C12231	5156.000000	5170.000000	0.000000	0.000000	0.000000
C12232	5156.100000	5165.000000	0.000000	0.000000	0.000000
C12233	5161.160000	5168.350000	0.000000	0.000000	0.000000
C12234	5151.730000	5160.000000	0.000000	0.000000	0.000000
C12327	5137.509766	5149.000000	0.000000	0.000000	0.000000
C12335	5146.000000	5155.100000	0.000000	0.000000	0.000000
C12336	5138.890000	5147.700000	0.000000	0.000000	0.000000
C12421	5136.340000	5144.300000	0.000000	0.000000	0.000000
C12422	5133.650000	5146.100000	0.000000	0.000000	0.000000
C12521	5124.670000	5139.670000	0.000000	0.000000	0.000000
C12522	5112.300000	5120.310000	0.000000	0.000000	0.000000
C12525	5123.979980	5137.089844	0.000000	0.000000	0.000000
C12601	5108.530000	5119.000000	0.000000	0.000000	0.000000
C12602	5108.050000	5118.000000	0.000000	0.000000	0.000000
C12611	5109.620000	5118.000000	0.000000	0.000000	0.000000
C12614	5108.830078	5120.000000	0.000000	0.000000	0.000000
C12621	5111.450000	5116.350000	0.000000	0.000000	0.000000
C12622	5111.270000	5116.770000	0.000000	0.000000	0.000000
C12701	5107.570000	5119.410156	0.000000	0.000000	0.000000
C12801	5106.350098	5111.500000	0.000000	0.000000	0.000000
C12802	5105.900000	5112.000000	0.000000	0.000000	0.000000
C12807	5106.100000	5112.570000	0.000000	0.000000	0.000000
C12871	5026.220000	5036.940000	0.000000	0.000000	0.000000
C12872	5024.450000	5041.770000	0.000000	0.000000	0.000000
C12875	5026.000000	5036.000000	0.000000	0.000000	0.000000
C12881	5022.480000	5040.360000	0.000000	0.000000	0.000000
C12891	5021.390000	5039.880000	0.000000	0.000000	0.000000
C12892	5019.910000	5034.800000	0.000000	0.000000	0.000000
C12910	5104.460000	5123.000000	0.000000	0.000000	0.000000
C12911	5105.450000	5111.050000	0.000000	0.000000	0.000000
C12912	5105.010000	5120.310000	0.000000	0.000000	0.000000
C12915	5104.880000	5121.190000	0.000000	0.000000	0.000000
C12961	5030.600000	5037.140000	0.000000	0.000000	0.000000
C12962	5030.200000	5042.310000	0.000000	0.000000	0.000000
C12963	5028.530000	5041.600000	0.000000	0.000000	0.000000
C12964	5028.470000	5042.570000	0.000000	0.000000	0.000000
C12966	5028.060000	5044.000000	0.000000	0.000000	0.000000
C12967	5027.260000	5041.500000	0.000000	0.000000	0.000000
C12991	5008.300000	5017.300000	0.000000	0.000000	0.000000
C12992	4998.160000	5009.900000	0.000000	0.000000	0.000000
C13071	5035.000000	5042.000000	0.000000	0.000000	0.000000
C13162	5028.000000	5035.000000	0.000000	0.000000	0.000000
C13163	5029.000000	5035.000000	0.000000	0.000000	0.000000
C13171	5032.000000	5040.000000	0.000000	0.000000	0.000000
C13191	4984.980000	4999.950000	0.000000	0.000000	0.000000
C13251	5015.000000	5022.000000	0.000000	0.000000	0.000000
C13262	5022.000000	5030.000000	0.000000	0.000000	0.000000
C13291	4983.640000	4996.220000	0.000000	0.000000	0.000000
C13292	4983.730000	4997.080000	0.000000	0.000000	0.000000
C13341	5000.000000	5007.000000	0.000000	0.000000	0.000000
C13351	5005.000000	5014.000000	0.000000	0.000000	0.000000
C13381	4982.110000	4991.370000	0.000000	0.000000	0.000000
C13382	4980.900000	4988.640000	0.000000	0.000000	0.000000
C13391	4981.610000	4991.450000	0.000000	0.000000	0.000000
C13442	5098.000000	5106.000000	0.000000	0.000000	0.000000
C13472	4978.350000	4988.120000	0.000000	0.000000	0.000000
C13481	4979.680000	4989.260000	0.000000	0.000000	0.000000
C13532	5095.000000	5104.000000	0.000000	0.000000	0.000000
C13533	5092.500000	5100.000000	0.000000	0.000000	0.000000
C13573	4976.939941	4987.600098	0.000000	0.000000	0.000000
C13574	4976.529785	4987.500000	0.000000	0.000000	0.000000
C13631	4990.000000	4996.000000	0.000000	0.000000	0.000000
C13651	4985.000000	4991.000000	0.000000	0.000000	0.000000
C13661	4980.000000	4990.000000	0.000000	0.000000	0.000000
C13662	4979.000000	4989.000000	0.000000	0.000000	0.000000
C13663	4976.000000	4988.000000	0.000000	0.000000	0.000000
C13671	4975.490000	4989.000000	0.000000	0.000000	0.000000
C13673	4975.799805	4988.000000	0.000000	0.000000	0.000000
C13676	4975.589844	4987.560059	0.000000	0.000000	0.000000
C13773	4974.790039	4986.350098	0.000000	0.000000	0.000000
C13774	4975.290039	4987.250000	0.000000	0.000000	0.000000
C13775	4975.310059	4987.000000	0.000000	0.000000	0.000000
C13871	4974.350098	4986.919922	0.000000	0.000000	0.000000
C13873	4974.740234	4986.740234	0.000000	0.000000	0.000000
C13901	4999.600000	5007.800000	0.000000	0.000000	0.000000
C13902	4994.700000	5003.400000	0.000000	0.000000	0.000000
C13971	4973.890137	4986.450195	0.000000	0.000000	0.000000
C14001	4987.470000	5008.230000	0.000000	0.000000	0.000000
C14002	4986.330000	5003.800000	0.000000	0.000000	0.000000
C14792	4976.970215	4989.810059	0.000000	0.000000	0.000000
C14793	4976.560059	4989.620117	0.000000	0.000000	0.000000
C14892	4976.500000	4988.990234	0.000000	0.000000	0.000000
C14893	4976.310059	4989.000000	0.000000	0.000000	0.000000
C14992	4975.680000	4988.120000	0.000000	0.000000	0.000000
C14993	4975.560059	4988.259766	0.000000	0.000000	0.000000
C14995	4975.310059	4988.450195	0.000000	0.000000	0.000000
C14996	4975.480000	4988.420000	0.000000	0.000000	0.000000
C15601	4977.540000	4992.500000	0.000000	0.000000	0.000000
C15612	4979.270020	4990.979980	0.000000	0.000000	0.000000
C15701	4977.390000	4991.000000	0.000000	0.000000	0.000000
C15712	4979.740234	4991.359863	0.000000	0.000000	0.000000
C15713	4980.700195	4991.500000	0.000000	0.000000	0.000000
C15721	4980.350098	4993.089844	0.000000	0.000000	0.000000
C15732	4981.250000	4995.700195	0.000000	0.000000	0.000000
C15733	4981.410156	4992.979980	0.000000	0.000000	0.000000
C15741	4982.200195	4992.370117	0.000000	0.000000	0.000000
C15751	4984.319824	4992.100098	0.000000	0.000000	0.000000
C15752	4983.089844	4991.939941	0.000000	0.000000	0.000000
C15755	4982.899902	4992.669922	0.000000	0.000000	0.000000
C15791	4977.100098	4989.799805	0.000000	0.000000	0.000000
C15792	4976.649902	4990.100098	0.000000	0.000000	0.000000
C15873	4983.790039	4992.000000	0.000000	0.000000	0.000000
C15881	4975.750000	4990.299805	0.000000	0.000000	0.000000
C15882	4975.560059	4990.100098	0.000000	0.000000	0.000000
C15884	4975.229980	4989.899902	0.000000	0.000000	0.000000
C15885	4982.560059	4992.100098	0.000000	0.000000	0.000000
C15894	4986.750000	4991.229980	0.000000	0.000000	0.000000
C15895	4987.299805	4991.970215	0.000000	0.000000	0.000000
C15981	4974.890137	4989.649902	0.000000	0.000000	0.000000
C15983	4974.890000	4990.000000	0.000000	0.000000	0.000000
C16021	4985.490000	4997.399902	0.000000	0.000000	0.000000
C16022	4985.180176	4997.850098	0.000000	0.000000	0.000000
C16115	4984.859863	4997.200195	0.000000	0.000000	0.000000
C16116	4985.180176	4997.850098	0.000000	0.000000	0.000000
C16121	4983.410000	4996.360000	0.000000	0.000000	0.000000
C16131	4983.000000	4996.310000	0.000000	0.000000	0.000000
C16132	4982.510000	4998.060000	0.000000	0.000000	0.000000
C16133	4982.680000	4998.140000	0.000000	0.000000	0.000000
C16231	4981.800000	4998.000000	0.000000	0.000000	0.000000
C16321	4980.900000	4997.500000	0.000000	0.000000	0.000000
C16322	4980.710000	4997.500000	0.000000	0.000000	0.000000
C16323	4980.450000	4997.500000	0.000000	0.000000	0.000000
C16325	4981.340000	4997.750000	0.000000	0.000000	0.000000
C16391	5048.379883	5061.430176	0.000000	0.000000	0.000000
C16411	4979.440000	4995.500000	0.000000	0.000000	0.000000
C16415	4979.550000	4995.360000	0.000000	0.000000	0.000000
C16421	4979.940000	4996.500000	0.000000	0.000000	0.000000
C16422	4980.110000	4998.000000	0.000000	0.000000	0.000000
C16491	5044.529785	5063.839844	0.000000	0.000000	0.000000
C16492	5040.490234	5064.709961	0.000000	0.000000	0.000000
C16503	4978.500000	4993.500000	0.000000	0.000000	0.000000
C16511	4979.010000	4994.500000	0.000000	0.000000	0.000000
C16515	4978.900000	4993.800000	0.000000	0.000000	0.000000
C16591	5036.540039	5065.839844	0.000000	0.000000	0.000000
C16601	4977.710000	4993.000000	0.000000	0.000000	0.000000
C16602	4977.560059	4992.700195	0.000000	0.000000	0.000000
C16603	4978.080000	4993.000000	0.000000	0.000000	0.000000
C16681	5030.009766	5046.430176	0.000000	0.000000	0.000000
C16682	5030.180176	5046.500000	0.000000	0.000000	0.000000
C16691	5033.290039	5065.000000	0.000000	0.000000	0.000000
C16692	5033.370117	5065.000000	0.000000	0.000000	0.000000
C16781	5027.890137	5038.720215	0.000000	0.000000	0.000000
C16802	4987.680176	4992.319824	0.000000	0.000000	0.000000
C16803	4988.140137	4992.839844	0.000000	0.000000	0.000000
C16821	4988.649902	4998.649902	0.000000	0.000000	0.000000
C16822	4989.580078	4998.270020	0.000000	0.000000	0.000000
C16881	5025.919922	5051.569824	0.000000	0.000000	0.000000
C16931	4991.850098	5000.310059	0.000000	0.000000	0.000000
C16941	4993.970215	5005.680176	0.000000	0.000000	0.000000
C16942	4995.410156	5005.979980	0.000000	0.000000	0.000000
C16943	4995.109863	5010.310059	0.000000	0.000000	0.000000
C16951	5009.400000	5020.000000	0.000000	0.000000	0.000000
C16981	5021.839844	5063.930176	0.000000	0.000000	0.000000
C16982	5023.740234	5050.740234	0.000000	0.000000	0.000000
C16983	5030.430176	5052.799805	0.000000	0.000000	0.000000
C16991	5034.700195	5064.299805	0.000000	0.000000	0.000000
C16992	5038.500000	5066.299805	0.000000	0.000000	0.000000
C16993	5036.910000	5071.000000	0.000000	0.000000	0.000000
C16994	5037.390000	5071.000000	0.000000	0.000000	0.000000
C17041	5082.169922	5093.560059	0.000000	0.000000	0.000000
C17042	5079.690000	5093.000000	0.000000	0.000000	0.000000
C17043	5082.549805	5093.750000	0.000000	0.000000	0.000000
C17051	5084.439941	5096.149902	0.000000	0.000000	0.000000
C17052	5086.540039	5102.310059	0.000000	0.000000	0.000000
C17060	5090.040039	5104.270020	0.000000	0.000000	0.000000
C17061	5089.939941	5108.259766	0.000000	0.000000	0.000000
C17062	5089.399902	5108.439941	0.000000	0.000000	0.000000
C17141	5077.600000	5090.000000	0.000000	0.000000	0.000000
C17142	5075.270000	5085.000000	0.000000	0.000000	0.000000
C17201	5050.440000	5063.000000	0.000000	0.000000	0.000000
C17211	5060.630000	5068.000000	0.000000	0.000000	0.000000
C17212	5055.840000	5065.000000	0.000000	0.000000	0.000000
C17221	5065.800000	5072.000000	0.000000	0.000000	0.000000
C17231	5072.720000	5080.000000	0.000000	0.000000	0.000000
C17232	5070.920000	5075.000000	0.000000	0.000000	0.000000
C17233	5071.210000	5076.000000	0.000000	0.000000	0.000000
C17903	5055.300000	5070.500000	0.000000	0.000000	0.000000
C17904	5057.280000	5072.500000	0.000000	0.000000	0.000000
C17912	5059.910000	5075.000000	0.000000	0.000000	0.000000
C17913	5061.670000	5075.000000	0.000000	0.000000	0.000000
C17914	5058.390000	5074.800000	0.000000	0.000000	0.000000
C17915	5058.650000	5074.900000	0.000000	0.000000	0.000000
C17921	5068.010000	5080.000000	0.000000	0.000000	0.000000
C17922	5074.730000	5085.000000	0.000000	0.000000	0.000000
C17931	5081.550000	5090.000000	0.000000	0.000000	0.000000
C17941	5088.410000	5095.000000	0.000000	0.000000	0.000000
C17952	5095.840000	5105.000000	0.000000	0.000000	0.000000
C17953	5102.420000	5110.000000	0.000000	0.000000	0.000000
C17962	5105.540000	5112.000000	0.000000	0.000000	0.000000
C17963	5110.320000	5115.000000	0.000000	0.000000	0.000000
C17971	5118.220000	5125.000000	0.000000	0.000000	0.000000
C17972	5126.270000	5132.000000	0.000000	0.000000	0.000000
C17981	5126.120000	5132.000000	0.000000	0.000000	0.000000
C17982	5132.050000	5140.000000	0.000000	0.000000	0.000000
C17991	5143.010000	5150.000000	0.000000	0.000000	0.000000
C18721	5183.069824	5199.410156	0.000000	0.000000	0.000000
C18722	5182.529785	5197.560059	0.000000	0.000000	0.000000
C18811	5181.029785	5196.000000	0.000000	0.000000	0.000000
C18821	5182.000000	5193.859863	0.000000	0.000000	0.000000
C18822	5181.540039	5191.160156	0.000000	0.000000	0.000000
C18901	5151.190000	5160.000000	0.000000	0.000000	0.000000
C18920	5179.729980	5193.500000	0.000000	0.000000	0.000000
C18922	5179.319824	5202.500000	0.000000	0.000000	0.000000
C19342	5379.850098	5393.299805	0.000000	0.000000	0.000000
C19441	5378.750000	5393.299805	0.000000	0.000000	0.000000
C19541	5377.799805	5391.299805	0.000000	0.000000	0.000000
C19650	5376.339844	5387.200195	0.000000	0.000000	0.000000
C19741	5374.779785	5383.899902	0.000000	0.000000	0.000000
C19841	5371.859863	5387.500000	0.000000	0.000000	0.000000
C19842	5373.319824	5387.100098	0.000000	0.000000	0.000000
D10601	5313.790000	5328.000000	0.000000	0.000000	0.000000
D10703	5313.190000	5329.250000	0.000000	0.000000	0.000000
D10704	5312.320000	5328.100000	0.000000	0.000000	0.000000
D10705	5311.760000	5327.000000	0.000000	0.000000	0.000000
D10802	5311.110000	5326.750000	0.000000	0.000000	0.000000
D10803	5310.470000	5324.750000	0.000000	0.000000	0.000000
D10904	5309.750000	5323.250000	0.000000	0.000000	0.000000
D10905	5309.300000	5322.500000	0.000000	0.000000	0.000000
D10906	5308.390000	5321.750000	0.000000	0.000000	0.000000
D11896	5104.089844	5110.669922	0.000000	0.000000	0.000000
D12012	5103.990000	5127.770000	0.000000	0.000000	0.000000
D12013	5104.390000	5127.300000	0.000000	0.000000	0.000000
D12111	5103.650000	5120.760000	0.000000	0.000000	0.000000