[TITLE]
;;Project Title/Notes

[OPTIONS]
;;Option             Value
FLOW_UNITS           CFS
INFILTRATION         HORTON
FLOW_ROUTING         DYNWAVE
LINK_OFFSETS         DEPTH
MIN_SLOPE            0
ALLOW_PONDING        YES
SKIP_STEADY_STATE    NO

START_DATE           12/16/2018
START_TIME           00:00:00
REPORT_START_DATE    12/16/2018
REPORT_START_TIME    00:00:00
END_DATE             12/22/2018
END_TIME             00:00:00
SWEEP_START          01/01
SWEEP_END            12/31
DRY_DAYS             0
REPORT_STEP          00:15:00
WET_STEP             00:05:00
DRY_STEP             01:00:00
ROUTING_STEP         0:00:30 

INERTIAL_DAMPING     PARTIAL
NORMAL_FLOW_LIMITED  BOTH
FORCE_MAIN_EQUATION  H-W
VARIABLE_STEP        0.75
LENGTHENING_STEP     0
MIN_SURFAREA         12.557
MAX_TRIALS           8
HEAD_TOLERANCE       0.005
SYS_FLOW_TOL         5
LAT_FLOW_TOL         5
MINIMUM_STEP         0.5
THREADS              1

[EVAPORATION]
;;Data Source    Parameters
;;-------------- ----------------
CONSTANT         0.0
DRY_ONLY         NO

[RAINGAGES]
;;Name           Format    Interval SCF      Source    
;;-------------- --------- ------ ------ ----------
1                INTENSITY 1:00     1.0      TIMESERIES Dummy           

[SUBCATCHMENTS]
;;Name           Rain Gage        Outlet           Area     %Imperv  Width    %Slope   CurbLen  SnowPack        
;;-------------- ---------------- ---------------- -------- -------- -------- -------- -------- ----------------
; Name Raingage Outlet Area %Imperv Width Slope Clength
MM-10-7          1                SA30AECB0        0.000000 0.000000 581.144013 0.369168 0.000000                 
MM-10-8          1                SA30AECL0        0.000000 0.000000 694.677930 0.500510 0.000000                 
MM-10-3          1                SA30AEEN0        0.000000 0.000000 762.903513 1.523512 0.000000                 
MM-10-2          1                SA30AEAD0        0.000000 0.000000 412.645383 1.790313 0.000000                 
MM-24-1          1                SA30AEFB0        0.000000 0.000000 661.442221 2.793357 0.000000                 
MP-18            1                SA30AECL5        0.000000 0.000000 467.570582 1.968329 0.000000                 
MP-20            1                SA30AEFB0        0.000000 0.000000 722.591635 2.793357 0.000000                 
MP-16            1                SA30ADBO0        0.000000 0.000000 938.933424 2.523452 0.000000                 
MP-19            1                SA30AEBC1        0.000000 0.000000 1164.539086 2.448980 0.000000                 

[SUBAREAS]
;;Subcatchment   N-Imperv   N-Perv     S-Imperv   S-Perv     PctZero    RouteTo    PctRouted 
;;-------------- ---------- ---------- ---------- ---------- ---------- ---------- ----------
MM-10-7          0.000000   0.000000   0.000000   0.000000   0.000000   OUTLET    
MM-10-8          0.000000   0.000000   0.000000   0.000000   0.000000   OUTLET    
MM-10-3          0.000000   0.000000   0.000000   0.000000   0.000000   OUTLET    
MM-10-2          0.000000   0.000000   0.000000   0.000000   0.000000   OUTLET    
MM-24-1          0.000000   0.000000   0.000000   0.000000   0.000000   OUTLET    
MP-18            0.000000   0.000000   0.000000   0.000000   0.000000   OUTLET    
MP-20            0.000000   0.000000   0.000000   0.000000   0.000000   OUTLET    
MP-16            0.000000   0.000000   0.000000   0.000000   0.000000   OUTLET    
MP-19            0.000000   0.000000   0.000000   0.000000   0.000000   OUTLET    

[INFILTRATION]
;;Subcatchment   MaxRate    MinRate    Decay      DryTime    MaxInfil  
;;-------------- ---------- ---------- ---------- ---------- ----------
MM-10-7          0.000000   0.000000   0.000000   999.000000 0.000000  
MM-10-8          0.000000   0.000000   0.000000   999.000000 0.000000  
MM-10-3          0.000000   0.000000   0.000000   999.000000 0.000000  
MM-10-2          0.000000   0.000000   0.000000   999.000000 0.000000  
MM-24-1          0.000000   0.000000   0.000000   999.000000 0.000000  
MP-18            0.000000   0.000000   0.000000   999.000000 0.000000  
MP-20            0.000000   0.000000   0.000000   999.000000 0.000000  
MP-16            0.000000   0.000000   0.000000   999.000000 0.000000  
MP-19            0.000000   0.000000   0.000000   999.000000 0.000000  

[JUNCTIONS]
;;Name           Elevation  MaxDepth   InitDepth  SurDepth   Aponded   
;;-------------- ---------- ---------- ---------- ---------- ----------
; Name Elev ( Ymax Y0 Ysur Apond )
SA30ADBO0        940.420000 11.680000  0.000000   0.000000   0.000000  
SA30ADBQ0        945.430000 18.050000  0.000000   0.000000   0.000000  
SA30ADBZ0        969.640000 14.410000  0.000000   0.000000   0.000000  
SA30AEAA3        975.130000 10.090000  0.000000   0.000000   0.000000  
SA30AEAD0        976.810000 17.170000  0.000000   0.000000   0.000000  
SA30AEAO0        971.700000 13.900000  0.000000   0.000000   0.000000  
SA30AEAS0        978.900000 11.650000  0.000000   0.000000   0.000000  
SA30AEBC0        982.390000 12.270000  0.000000   0.000000   0.000000  
SA30AEBC1        982.300000 12.840000  0.000000   0.000000   0.000000  
SA30AEBF0        994.190000 12.860000  0.000000   0.000000   0.000000  
SA30AECB0        983.610000 9.100000   0.000000   0.000000   0.000000  
SA30AECL0        977.210000 15.269000  0.000000   0.000000   0.000000  
SA30AECL5        975.110000 15.897000  0.000000   0.000000   0.000000  
SA30AEEN0        990.320000 7.980000   0.000000   0.000000   0.000000  
SA30AEFA0        983.940000 9.660000   0.000000   0.000000   0.000000  
SA30AEFB0        991.610000 12.250000  0.000000   0.000000   0.000000  
SA30AEHA5        995.450000 11.000000  0.000000   0.000000   0.000000  

[OUTFALLS]
;;Name           Elevation  Type       Stage Data       Gated    Route To        
;;-------------- ---------- ---------- ---------------- -------- ----------------
; Name InvertEl FREE FlapGate
; Name InvertEl NORMAL FlapGate
; Name InvertEl FIXED FixedStage FlapGate
; Name InvertEl TIDAL TideTable FlapGate
; Name InvertEl TIMESERIES StageSeries FlapGate
SA30ADBL0        923.950000 FREE                        NO                       

[CONDUITS]
;;Name           From Node        To Node          Length     Roughness  InOffset   OutOffset  InitFlow   MaxFlow   
;;-------------- ---------------- ---------------- ---------- ---------- ---------- ---------- ---------- ----------
; Name Node1 Node2 Length Nvalue Zup Zdown InitFlow
SA30ADBO0.1      SA30ADBO0        SA30ADBL0        639.600000 0.014000   0.000000   0.000000   0.000000   0         
SA30ADBQ0.1      SA30ADBQ0        SA30ADBO0        602.200000 0.014000   0.000000   0.000000   0.000000   0         
SA30ADBZ0.1      SA30ADBZ0        SA30ADBQ0        1737.900000 0.014000   0.000000   0.000000   0.000000   0         
SA30AEAA3.1      SA30AEAA3        SA30ADBZ0        418.300000 0.014000   0.000000   0.000000   0.000000   0         
SA30AEAD0.1      SA30AEAD0        SA30AEAA3        489.300000 0.014000   0.000000   0.000000   0.000000   0         
SA30AEAO0.1      SA30AEAO0        SA30ADBZ0        138.100000 0.014000   0.000000   0.000000   0.000000   0         
SA30AEAS0.1      SA30AEAS0        SA30AECL0        352.300000 0.014000   0.000000   0.000000   0.000000   0         
SA30AEBC0.1      SA30AEBC0        SA30AEAD0        441.900000 0.014000   0.000000   0.000000   0.000000   0         
SA30AEBC1.1      SA30AEBC1        SA30AEBC0        19.600000  0.014000   0.000000   0.000000   0.000000   0         
SA30AEBF0.1      SA30AEBF0        SA30AEBC1        579.700000 0.014000   0.000000   0.000000   0.000000   0         
SA30AECB0.1      SA30AECB0        SA30AEAS0        585.100000 0.014000   0.000000   0.000000   0.000000   0         
SA30AECL0.1      SA30AECL0        SA30AECL5        294.100000 0.014000   0.000000   0.010000   0.000000   0         
SA30AECL5.1      SA30AECL5        SA30AEAO0        274.700000 0.014000   0.010000   0.000000   0.000000   0         
SA30AEEN0.1      SA30AEEN0        SA30AEAO0        833.600000 0.014000   0.000000   0.000000   0.000000   0         
SA30AEFA0.1      SA30AEFA0        SA30AEBC1        279.500000 0.014000   0.000000   0.000000   0.000000   0         
SA30AEFB0.1      SA30AEFB0        SA30AEFA0        367.300000 0.014000   0.000000   0.000000   0.000000   0         
SA30AEHA5.1      SA30AEHA5        SA30AEBF0        287.300000 0.014000   0.000000   0.000000   0.000000   0         

[XSECTIONS]
;;Link           Shape        Geom1            Geom2      Geom3      Geom4      Barrels    Culvert   
;;-------------- ------------ ---------------- ---------- ---------- ---------- ---------- ----------
SA30ADBO0.1      CIRCULAR     1.250000         0.000000   0.000000   0.000000   1                    
SA30ADBQ0.1      CIRCULAR     1.250000         0.000000   0.000000   0.000000   1                    
SA30ADBZ0.1      CIRCULAR     1.250000         0.000000   0.000000   0.000000   1                    
SA30AEAA3.1      CIRCULAR     1.000000         0.000000   0.000000   0.000000   1                    
SA30AEAD0.1      CIRCULAR     1.000000         0.000000   0.000000   0.000000   1                    
SA30AEAO0.1      CIRCULAR     1.250000         0.000000   0.000000   0.000000   1                    
SA30AEAS0.1      CIRCULAR     0.666667         0.000000   0.000000   0.000000   1                    
SA30AEBC0.1      CIRCULAR     1.000000         0.000000   0.000000   0.000000   1                    
SA30AEBC1.1      CIRCULAR     0.666667         0.000000   0.000000   0.000000   1                    
SA30AEBF0.1      CIRCULAR     0.666667         0.000000   0.000000   0.000000   1                    
SA30AECB0.1      CIRCULAR     0.666667         0.000000   0.000000   0.000000   1                    
SA30AECL0.1      CIRCULAR     0.833333         0.000000   0.000000   0.000000   1                    
SA30AECL5.1      CIRCULAR     0.833333         0.000000   0.000000   0.000000   1                    
SA30AEEN0.1      CIRCULAR     0.666667         0.000000   0.000000   0.000000   1                    
SA30AEFA0.1      CIRCULAR     0.666667         0.000000   0.000000   0.000000   1                    
SA30AEFB0.1      CIRCULAR     0.666667         0.000000   0.000000   0.000000   1                    
SA30AEHA5.1      CIRCULAR     0.666667         0.000000   0.000000   0.000000   1                    

[DWF]
;;Node           Constituent      Baseline   Patterns  
;;-------------- ---------------- ---------- ----------
SA30AECB0        FLOW             247        "MONTHLY_POP_90" "HOURLY_POP_90" "WEEKEND_POP_90"
SA30AECL0        FLOW             353        "MONTHLY_POP_90" "HOURLY_POP_90" "WEEKEND_POP_90"
SA30AECL5        FLOW             160        "MONTHLY_POP_90" "HOURLY_POP_90" "WEEKEND_POP_90"

[HYDROGRAPHS]
;;Hydrograph     Rain Gage/Month  Response R        T        K        Dmax     Drecov   Dinit   
;;-------------- ---------------- -------- -------- -------- -------- -------- -------- --------
RTK_MP-18        1               
RTK_MP-18        All              Short    0.030000 0.600000 1.750000 0.000000 0.000000 0.000000
RTK_MP-18        All              Medium   0.050000 1.500000 3.000000 0.000000 0.000000 0.000000
RTK_MP-18        All              Long     0.110000 4.000000 6.000000 0.000000 0.000000 0.000000
RTK_MP-18        Apr              Short    0.030000 0.600000 1.750000 0.508000 0.254000 0.000000
RTK_MP-18        Apr              Medium   0.050000 1.500000 3.000000 1.016000 0.508000 0.000000
RTK_MP-18        Apr              Long     0.110000 4.000000 6.000000 1.524000 0.762000 0.000000
RTK_MP-18        May              Short    0.030000 0.600000 1.750000 0.254000 0.254000 0.000000
RTK_MP-18        May              Medium   0.050000 1.500000 3.000000 1.778000 0.762000 0.000000
RTK_MP-18        May              Long     0.110000 4.000000 6.000000 8.890000 1.524000 0.000000
RTK_MP-18        Jun              Short    0.030000 0.600000 1.750000 7.620000 1.270000 0.000000
RTK_MP-18        Jun              Medium   0.050000 1.500000 3.000000 12.700000 2.540000 0.000000
RTK_MP-18        Jun              Long     0.110000 4.000000 6.000000 20.320000 10.160000 0.000000
RTK_MP-18        Jul              Short    0.030000 0.600000 1.750000 0.254000 0.254000 0.000000
RTK_MP-18        Jul              Medium   0.050000 1.500000 3.000000 0.254000 0.254000 0.000000
RTK_MP-18        Jul              Long     0.110000 4.000000 6.000000 1.270000 0.508000 0.000000
RTK_MP-18_1      1               
RTK_MP-18_1      All              Short    0.030000 0.600000 1.750000 0        0        0       
RTK_MP-18_1      All              Medium   0.050000 1.500000 3.000000 0        0        0       
RTK_MP-18_1      All              Long     0.110000 4.000000 6.000000 0        0        0       


[RDII]
;;Node           Unit Hydrograph  Sewer Area
;;-------------- ---------------- ----------
SA30AECB0        RTK_MP-18_1      24.357322 
SA30AECL0        RTK_MP-18_1      34.803988 
SA30AECL5        RTK_MP-18_1      15.767265 

[TIMESERIES]
;;Name           Date       Time       Value     
;;-------------- ---------- ---------- ----------
Dummy                       0          0         
Dummy                       1          1         
Dummy                       2          2         
Dummy                       3          1         
Dummy                       4          0         
Dummy                       5          0         
Dummy                       6          0         
Dummy                       7          0         
Dummy                       8          0         
Dummy                       9          0         
Dummy                       10         1         
Dummy                       11         2         
Dummy                       12         1         
Dummy                       13         0         
Dummy                       14         0         
Dummy                       15         0         
Dummy                       16         0         
Dummy                       17         0         
Dummy                       18         0         
Dummy                       19         1         
Dummy                       20         2         
Dummy                       21         1         
Dummy                       22         0         
Dummy                       23         0         
Dummy                       24         0         
Dummy                       25         0         
Dummy                       26         0         
Dummy                       27         0         
Dummy                       28         1         
Dummy                       29         2         
Dummy                       30         1         
Dummy                       31         0         
Dummy                       32         0         
Dummy                       33         0         
Dummy                       34         0         
Dummy                       35         0         
Dummy                       36         0         
Dummy                       37         1         
Dummy                       38         2         
Dummy                       39         1         
Dummy                       40         0         
Dummy                       41         0         
Dummy                       42         0         
Dummy                       43         0         
Dummy                       44         0         
Dummy                       45         0         
Dummy                       46         1         
Dummy                       47         2         
Dummy                       48         1         
Dummy                       49         0         
Dummy                       50         0         
Dummy                       51         0         
Dummy                       52         0         
Dummy                       53         0         
Dummy                       54         0         
Dummy                       55         1         
Dummy                       56         2         
Dummy                       57         1         
Dummy                       58         0         
Dummy                       59         0         
Dummy                       60         0         
Dummy                       61         0         
Dummy                       62         0         
Dummy                       63         0         
Dummy                       64         1         
Dummy                       65         2         
Dummy                       66         1         
Dummy                       67         0         
Dummy                       68         0         
Dummy                       69         0         
Dummy                       70         0         
Dummy                       71         0         
Dummy                       72         0         
Dummy                       73         1         
Dummy                       74         2         
Dummy                       75         1         
Dummy                       76         0         
Dummy                       77         0         
Dummy                       78         0         
Dummy                       79         0         
Dummy                       80         0         
Dummy                       81         0         
Dummy                       82         1         
Dummy                       83         2         
Dummy                       84         1         
Dummy                       85         0         
Dummy                       86         0         
Dummy                       87         0         
Dummy                       88         0         

[PATTERNS]
;;Name           Type       Multipliers
;;-------------- ---------- -----------
MONTHLY_POP_90   MONTHLY    1.0   1.0   1.0   1.0   1.0   1.0  
MONTHLY_POP_90              1.0   1.0   1.0   1.0   1.0   1.0  
;
HOURLY_POP_90    DAILY      1.0   1.0   1.0   1.0   1.0   1.0   1.0  
;
WEEKEND_POP_90   WEEKEND    1.0   1.0   1.0   1.0   1.0   1.0  
WEEKEND_POP_90              1.0   1.0   1.0   1.0   1.0   1.0  
WEEKEND_POP_90              1.0   1.0   1.0   1.0   1.0   1.0  
WEEKEND_POP_90              1.0   1.0   1.0   1.0   1.0   1.0  

[REPORT]
;;Reporting Options
INPUT      NO
CONTROLS   NO
SUBCATCHMENTS ALL
NODES ALL
LINKS ALL

[TAGS]

[MAP]
DIMENSIONS 2229816.251 636190.328 2235526.858 641540.515
Units      None

[COORDINATES]
;;Node           X-Coord            Y-Coord           
;;-------------- ------------------ ------------------
SA30ADBO0        2230707.398        636653.337        
SA30ADBQ0        2231202.704        636992.291        
SA30ADBZ0        2232580.096        637671.993        
SA30AEAA3        2232572.556        638053.591        
SA30AEAD0        2232581.068        638697.540        
SA30AEAO0        2232582.790        637578.830        
SA30AEAS0        2232601.072        636653.213        
SA30AEBC0        2232569.935        639138.755        
SA30AEBC1        2232569.545        639159.849        
SA30AEBF0        2232555.045        639736.099        
SA30AECB0        2233188.321        636662.092        
SA30AECL0        2232595.083        636992.854        
SA30AECL5        2232587.622        637304.227        
SA30AEEN0        2233237.121        638046.836        
SA30AEFA0        2232846.207        639162.106        
SA30AEFB0        2233213.702        639168.573        
SA30AEHA5        2232551.266        640018.779        
SA30ADBL0        2230075.824        636573.339        

[VERTICES]
;;Link           X-Coord            Y-Coord           
;;-------------- ------------------ ------------------
SA30ADBO0.1      2230497.513        636591.653        
SA30ADBO0.1      2230423.833        636583.528        
SA30ADBO0.1      2230317.513        636578.736        
SA30ADBQ0.1      2230964.705        636814.036        
SA30ADBZ0.1      2232521.621        637672.095        
SA30ADBZ0.1      2232263.526        637594.671        
SA30ADBZ0.1      2232202.075        637620.640        
SA30ADBZ0.1      2232135.982        637549.485        
SA30ADBZ0.1      2231996.162        637280.524        
SA30ADBZ0.1      2231775.060        637129.613        
SA30ADBZ0.1      2231524.771        636987.913        
SA30AEAA3.1      2232576.862        637855.184        
SA30AEAD0.1      2232588.395        638340.558        
SA30AEAS0.1      2232598.061        636763.066        
SA30AEBF0.1      2232567.510        639451.231        
SA30AECB0.1      2232890.832        636656.333        
SA30AEEN0.1      2233071.515        637866.461        
SA30AEEN0.1      2232966.723        637711.079        
SA30AEEN0.1      2232844.900        637624.923        
SA30AEEN0.1      2232733.626        637601.724        
SA30AEEN0.1      2232642.171        637582.637        

[Polygons]
;;Subcatchment   X-Coord            Y-Coord           
;;-------------- ------------------ ------------------
MM-10-7          2235266.425        636534.189        
MM-10-7          2235267.285        636479.255        
MM-10-7          2235266.649        636479.215        
MM-10-7          2235262.345        636478.942        
MM-10-7          2235116.488        636477.911        
MM-10-7          2235116.487        636478.062        
MM-10-7          2235116.487        636478.137        
MM-10-7          2235066.487        636477.641        
MM-10-7          2235037.407        636477.353        
MM-10-7          2235016.489        636477.205        
MM-10-7          2234966.489        636476.851        
MM-10-7          2234916.487        636476.498        
MM-10-7          2234854.268        636476.058        
MM-10-7          2234795.349        636475.642        
MM-10-7          2234754.050        636475.350        
MM-10-7          2234736.223        636475.261        
MM-10-7          2234676.814        636474.962        
MM-10-7          2234617.696        636474.666        
MM-10-7          2234586.428        636474.509        
MM-10-7          2234561.812        636474.385        
MM-10-7          2234507.722        636474.114        
MM-10-7          2234461.143        636473.880        
MM-10-7          2234414.860        636473.647        
MM-10-7          2234368.773        636473.416        
MM-10-7          2234322.780        636473.185        
MM-10-7          2234275.988        636472.950        
MM-10-7          2234225.987        636472.699        
MM-10-7          2234065.586        636471.893        
MM-10-7          2234015.592        636470.593        
MM-10-7          2233853.092        636469.594        
MM-10-7          2233803.092        636469.293        
MM-10-7          2233753.092        636468.994        
MM-10-7          2233705.792        636468.694        
MM-10-7          2233672.687        636468.464        
MM-10-7          2233659.690        636470.278        
MM-10-7          2233638.792        636473.194        
MM-10-7          2233613.097        636475.344        
MM-10-7          2233566.123        636479.276        
MM-10-7          2233543.059        636481.424        
MM-10-7          2233518.552        636483.707        
MM-10-7          2233498.697        636485.067        
MM-10-7          2233473.592        636486.786        
MM-10-7          2233469.025        636486.963        
MM-10-7          2233418.175        636488.932        
MM-10-7          2233385.792        636490.186        
MM-10-7          2233365.558        636490.370        
MM-10-7          2233311.986        636490.859        
MM-10-7          2233297.992        636490.986        
MM-10-7          2233258.711        636490.736        
MM-10-7          2233205.827        636490.398        
MM-10-7          2233152.981        636490.061        
MM-10-7          2233100.307        636489.725        
MM-10-7          2233049.727        636489.402        
MM-10-7          2232999.727        636489.083        
MM-10-7          2232949.728        636488.764        
MM-10-7          2232924.243        636488.601        
MM-10-7          2232892.228        636488.397        
MM-10-7          2232890.492        636488.436        
MM-10-7          2232834.423        636487.563        
MM-10-7          2232817.592        636487.286        
MM-10-7          2232744.792        636484.786        
MM-10-7          2232673.403        636480.992        
MM-10-7          2232673.292        636480.986        
MM-10-7          2232671.992        636480.886        
MM-10-7          2232670.592        636480.886        
MM-10-7          2232670.577        636480.887        
MM-10-7          2232667.892        636481.086        
MM-10-7          2232665.292        636481.586        
MM-10-7          2232662.692        636482.186        
MM-10-7          2232660.092        636483.086        
MM-10-7          2232657.692        636484.286        
MM-10-7          2232655.292        636485.586        
MM-10-7          2232653.092        636487.086        
MM-10-7          2232651.092        636488.886        
MM-10-7          2232649.192        636490.786        
MM-10-7          2232647.492        636492.886        
MM-10-7          2232645.992        636495.086        
MM-10-7          2232644.592        636497.386        
MM-10-7          2232643.492        636499.886        
MM-10-7          2232642.592        636502.386        
MM-10-7          2232641.992        636504.986        
MM-10-7          2232641.518        636507.684        
MM-10-7          2232641.392        636510.386        
MM-10-7          2232641.359        636512.186        
MM-10-7          2232640.340        636567.187        
MM-10-7          2232640.156        636577.160        
MM-10-7          2232639.792        636596.786        
MM-10-7          2232637.392        636718.386        
MM-10-7          2232637.380        636719.041        
MM-10-7          2232636.826        636748.785        
MM-10-7          2232636.025        636791.790        
MM-10-7          2232828.492        636792.986        
MM-10-7          2232828.169        636809.981        
MM-10-7          2232827.692        636837.986        
MM-10-7          2232827.492        636846.986        
MM-10-7          2232826.993        636871.586        
MM-10-7          2232876.792        636872.386        
MM-10-7          2232881.292        636872.386        
MM-10-7          2232926.792        636873.086        
MM-10-7          2232931.292        636873.186        
MM-10-7          2232976.692        636873.786        
MM-10-7          2232981.292        636873.886        
MM-10-7          2233026.692        636874.586        
MM-10-7          2233031.292        636874.586        
MM-10-7          2233076.692        636875.286        
MM-10-7          2233081.292        636875.386        
MM-10-7          2233126.692        636876.086        
MM-10-7          2233128.592        636876.086        
MM-10-7          2233175.492        636876.786        
MM-10-7          2233176.392        636876.786        
MM-10-7          2233176.692        636876.789        
MM-10-7          2233222.592        636877.486        
MM-10-7          2233226.692        636877.486        
MM-10-7          2233269.792        636878.186        
MM-10-7          2233276.692        636878.286        
MM-10-7          2233317.292        636878.886        
MM-10-7          2233326.692        636878.986        
MM-10-7          2233366.792        636879.586        
MM-10-7          2233376.692        636879.786        
MM-10-7          2233417.292        636880.386        
MM-10-7          2233426.692        636880.486        
MM-10-7          2233470.092        636881.120        
MM-10-7          2233476.692        636881.265        
MM-10-7          2233523.292        636881.893        
MM-10-7          2233524.792        636881.993        
MM-10-7          2233526.692        636881.993        
MM-10-7          2233547.677        636882.289        
MM-10-7          2233576.442        636882.693        
MM-10-7          2233577.380        636882.693        
MM-10-7          2233577.692        636882.693        
MM-10-7          2233637.992        636883.593        
MM-10-7          2233644.092        636883.693        
MM-10-7          2233699.592        636884.494        
MM-10-7          2233706.492        636884.693        
MM-10-7          2233751.492        636885.294        
MM-10-7          2233762.992        636885.493        
MM-10-7          2233801.492        636886.093        
MM-10-7          2233820.692        636886.293        
MM-10-7          2233851.492        636886.794        
MM-10-7          2233880.092        636887.193        
MM-10-7          2233901.392        636887.493        
MM-10-7          2233936.892        636888.093        
MM-10-7          2233951.392        636888.294        
MM-10-7          2233997.992        636888.993        
MM-10-7          2234009.392        636889.093        
MM-10-7          2234059.386        636890.894        
MM-10-7          2234120.986        636891.794        
MM-10-7          2234175.986        636892.593        
MM-10-7          2234194.386        636892.893        
MM-10-7          2234230.986        636893.394        
MM-10-7          2234240.786        636893.593        
MM-10-7          2234285.186        636894.193        
MM-10-7          2234287.386        636894.294        
MM-10-7          2234326.386        636894.794        
MM-10-7          2234345.486        636895.093        
MM-10-7          2234365.886        636895.394        
MM-10-7          2234403.436        636895.993        
MM-10-7          2234441.986        636896.494        
MM-10-7          2234462.186        636896.794        
MM-10-7          2234478.986        636897.088        
MM-10-7          2234516.586        636897.689        
MM-10-7          2234520.986        636897.689        
MM-10-7          2234555.886        636898.189        
MM-10-7          2234574.786        636898.489        
MM-10-7          2234595.186        636898.789        