[TITLE]
;;Project Title/Notes
Great Miami
10-yr Design Storm

[OPTIONS]
;;Option             Value
FLOW_UNITS           CFS
INFILTRATION         HORTON
FLOW_ROUTING         DYNWAVE
LINK_OFFSETS         DEPTH
MIN_SLOPE            0
ALLOW_PONDING        NO
SKIP_STEADY_STATE    NO

START_DATE           02/01/2003
START_TIME           00:00:00
REPORT_START_DATE    02/01/2003
REPORT_START_TIME    00:00:00
END_DATE             02/02/2003
END_TIME             12:00:00
SWEEP_START          1/1
SWEEP_END            12/31
DRY_DAYS             0
REPORT_STEP          00:05:00
WET_STEP             00:15:00
DRY_STEP             01:00:00
ROUTING_STEP         0:00:01 

INERTIAL_DAMPING     NONE
NORMAL_FLOW_LIMITED  FROUDE
FORCE_MAIN_EQUATION  H-W
VARIABLE_STEP        0.75
LENGTHENING_STEP     0
MIN_SURFAREA         0
MAX_TRIALS           0
HEAD_TOLERANCE       0
SYS_FLOW_TOL         5
LAT_FLOW_TOL         5
MINIMUM_STEP         0.5
THREADS              1

[EVAPORATION]
;;Data Source    Parameters
;;-------------- ----------------
CONSTANT         0.0
DRY_ONLY         NO

[JUNCTIONS]
;;Name           Elevation  MaxDepth   InitDepth  SurDepth   Aponded   
;;-------------- ---------- ---------- ---------- ---------- ----------
;                 Invert      Max.       Init.      Surcharge  Ponded
;Name             Elev.       Depth      Depth      Depth      Area
;------------------------------------------------------------------------
10901001         517.92     7.00       .00        .00        0         
10901002         516.97     9.00       .00        .00        0         
10901003         514.41     10.00      .00        .00        0         
10902002         474.00     13.00      .00        .00        0         
10902003         484.15     11.00      .00        .00        0         
10902004         494.99     7.00       .00        .00        0         
10902005         495.95     6.00       .00        .00        0         
10902014         497.49     5.00       .00        .00        0         
10902015         499.65     7.00       .00        .00        0         
10902016         511.80     9.00       .00        .00        0         
10902017         513.06     10.00      .00        .00        0         
10902018         535.96     6.00       .00        .00        0         
10902019         545.93     6.00       .00        .00        0         
10902021         495.71     6.00       .00        .00        0         
10902028         499.63     6.00       .00        .00        0         
10902032         473.26     14.00      .00        .00        0         
10904001         523.88     6.00       .00        .00        0         
10904002         521.78     6.00       .00        .00        0         
10904003         520.51     7.00       .00        .00        0         
10904004         509.79     18.00      .00        .00        0         
10904005         505.06     6.00       .00        .00        0         
10904006         495.60     6.00       .00        .00        0         
10904007         484.94     10.00      .00        .00        0         
10904008         494.99     6.00       .00        .00        0         
10904009         504.16     6.00       .00        .00        0         
10904012         522.66     5.00       .00        .00        0         
10904013         525.58     6.00       .00        .00        0         
10905001         713.78     33.00      .00        .00        0         
10905002         712.18     28.00      .00        .00        0         
10905003         711.58     6.00       .00        .00        0         
10905004         711.16     10.00      .00        .00        0         
10905005         684.16     7.00       .00        .00        0         
10905006         602.55     6.00       .00        .00        0         
10906001         715.48     20.00      .00        .00        0         
10906002         714.54     11.00      .00        .00        0         
10911001         718.67     13.00      .00        .00        0         
10911002         717.67     6.00       .00        .00        0         
10911011         717.08     8.00       .00        .00        0         
11004001         471.01     9.00       .00        .00        0         
11004002         470.25     10.00      .00        .00        0         
11004004B        446.00     33.00      .00        .00        0         
11004009         467.65     23.00      .00        .00        0         
11004010         468.38     15.00      .00        .00        0         
11004011         471.30     25.70      .00        .00        0         
11004012         438.90     6.10       .00        .00        0         
11005001         448.89     22.00      .00        .00        0         
11005002         445.84     26.00      .00        .00        0         
11005003         450.75     19.00      .00        .00        0         
11005004         453.01     17.00      .00        .00        0         
11005005         454.85     15.00      .00        .00        0         
11005006         455.14     10.00      .00        .00        0         
11005007         463.60     20.00      .00        .00        0         
11005008         445.30     27.00      .00        .00        0         
11005009         448.89     22.40      .00        .00        0         
11005010         448.89     22.40      .00        .00        0         
11005011         445.84     27.66      .00        .00        0         
11005012         445.84     27.66      .00        .00        0         
11012001         462.30     19.00      .00        .00        0         
11012002         485.49     10.00      .00        .00        0         
11012003         457.36     12.00      .00        .00        0         
11012006         480.38     7.00       .00        .00        0         
11012007         468.00     18.00      .00        .00        0         
11012008         460.82     16.00      .00        .00        0         
11012011         497.62     4.00       .00        .00        0         
11012012         486.60     9.00       .00        .00        0         
11013001         483.14     11.00      .00        .00        0         
11013003         473.54     8.00       .00        .00        0         
11013005         489.61     7.00       .00        .00        0         
11013006         481.48     6.00       .00        .00        0         
11013007         470.54     8.00       .00        .00        0         
11013009         473.25     13.00      .00        .00        0         
11013010         476.07     13.00      .00        .00        0         
11013011         481.76     17.00      .00        .00        0         
11013014         517.72     7.00       .00        .00        0         
11013015         512.00     5.00       .00        .00        0         
11013016         503.98     3.00       .00        .00        0         
11013017         503.36     4.00       .00        .00        0         
11014004         496.50     6.00       .00        .00        0         
11014005         491.84     6.00       .00        .00        0         
11014006         488.10     7.00       .00        .00        0         
11014007         486.08     6.00       .00        .00        0         
11014008         484.34     5.00       .00        .00        0         
11014015         485.79     6.00       .00        .00        0         
11113001         467.35     11.00      .00        .00        0         
11113002         466.71     14.00      .00        .00        0         
11113004         467.26     11.00      .00        .00        0         
11412001         448.64     19.00      .00        .00        0         
11413001         455.23     21.50      .00        .00        0         
11413002         469.22     9.00       .00        .00        0         
11413003         481.51     10.00      .00        .00        0         
11413004         482.67     11.00      .00        .00        0         
11413010         483.99     9.00       .00        .00        0         
11413011         482.80     10.00      .00        .00        0         
11413012         490.20     15.00      .00        .00        0         
11413013         489.25     13.00      .00        .00        0         
11413014         485.47     11.00      .00        .00        0         
11413015         483.37     12.00      .00        .00        0         
11413017         485.34     10.00      .00        .00        0         
11413020         490.02     9.00       .00        .00        0         
11413021         449.52     17.00      .00        .00        0         
11413023         482.30     10.00      .00        .00        0         
11413024         488.07     8.00       .00        .00        0         
11413025         486.19     8.00       .00        .00        0         
11413026         475.94     12.00      .00        .00        0         
11413027         484.30     10.00      .00        .00        0         
11503001         454.83     12.05      .00        .00        0         
11503003         457.09     10.00      .00        .00        0         
11503004         483.38     9.00       .00        .00        0         
11504004         458.57     30.00      .00        .00        0         
11504005         481.92     11.00      .00        .00        0         
11504009         489.86     11.00      .00        .00        0         
11504010         472.64     24.00      .00        .00        0         
11504011         476.01     11.00      .00        .00        0         
11504012         480.57     9.00       .00        .00        0         
11504013         485.05     9.00       .00        .00        0         
11504016         505.41     11.00      .00        .00        0         
11504017         508.77     11.00      .00        .00        0         
11504018         512.08     10.00      .00        .00        0         
11504020         493.35     17.00      .00        .00        0         
11504021         508.85     11.00      .00        .00        0         
11504022         510.76     11.00      .00        .00        0         
11504023         513.39     10.00      .00        .00        0         
11504026         491.59     16.00      .00        .00        0         
11504027         473.42     23.00      .00        .00        0         
11504028         465.80     28.00      .00        .00        0         
11504029         459.57     32.00      .00        .00        0         
11505002         491.98     14.00      .00        .00        0         
11505003         493.50     14.00      .00        .00        0         
11505009         510.60     9.00       .00        .00        0         
11505011         482.33     11.00      .00        .00        0         
11505012         490.45     22.00      .00        .00        0         
11505013         526.41     10.00      .00        .00        0         
11505014         500.78     11.00      .00        .00        0         
11505015         505.67     9.16       .00        .00        0         
11505016         491.94     12.00      .00        .00        0         
11505017         488.26     11.00      .00        .00        0         
11505018         509.19     13.00      .00        .00        0         
11505026         515.59     13.00      .00        .00        0         
11505027         516.74     10.00      .00        .00        0         
11505028         516.99     8.00       .00        .00        0         
11505029         491.70     16.00      .00        .00        0         
11505030         489.86     22.00      .00        .00        0         
11506001         459.98     13.00      .00        .00        0         
11506002         484.31     9.00       .00        .00        0         
11506003         485.31     10.00      .00        .00        0         
11506009         494.55     14.00      .00        .00        0         
11506010         495.34     13.00      .00        .00        0         
11506011         496.03     13.00      .00        .00        0         
11506012         497.47     12.00      .00        .00        0         
11511001         468.87     9.19       .00        .00        0         
11511002         460.76     17.00      .00        .00        0         
11511004         477.01     17.00      .00        .00        0         
11511005         478.48     18.00      .00        .00        0         
11511006         479.77     18.00      .00        .00        0         
11511007         480.65     16.00      .00        .00        0         
11511008         498.38     10.00      .00        .00        0         
11511009         499.49     9.00       .00        .00        0         
11511010         496.50     12.00      .00        .00        0         
11511011         492.51     15.00      .00        .00        0         
11511016         505.61     11.00      .00        .00        0         
11511019         506.59     15.00      .00        .00        0         
11511022         515.04     8.00       .00        .00        0         
11511023         507.99     13.00      .00        .00        0         
11511024         510.36     11.00      .00        .00        0         
11511025         475.96     16.00      .00        .00        0         
11512003         496.50     17.00      .00        .00        0         
11512004         503.46     13.00      .00        .00        0         
11512005         507.86     12.00      .00        .00        0         
11512006         516.40     10.00      .00        .00        0         
11512008         524.82     10.00      .00        .00        0         
11512009         530.18     13.00      .00        .00        0         
11512013         498.30     12.00      .00        .00        0         
11512018         500.05     17.00      .00        .00        0         
11512019         501.03     16.00      .00        .00        0         
11512020         502.05     13.00      .00        .00        0         
11512021         505.58     11.00      .00        .00        0         
11512029         497.17     17.00      .00        .00        0         
11512030         495.70     18.00      .00        .00        0         
11513001         503.30     12.00      .00        .00        0         
11513002         503.77     12.00      .00        .00        0         
11513003         507.79     7.00       .00        .00        0         
11513004         509.63     9.00       .00        .00        0         
11513005         515.70     8.00       .00        .00        0         
11513009         538.98     6.00       .00        .00        0         
11513010         540.27     8.00       .00        .00        0         
11513011         541.47     9.00       .00        .00        0         
11513012         542.37     9.00       .00        .00        0         
11514009         512.25     11.00      .00        .00        0         
11514010         513.49     13.00      .00        .00        0         
11514011         517.89     13.00      .00        .00        0         
11514012         490.54     14.00      .00        .00        0         
11514013         521.94     13.00      .00        .00        0         
11514014         504.59     13.00      .00        .00        0         
11514015         505.62     12.00      .00        .00        0         
11514016         510.24     9.00       .00        .00        0         
11514017         513.98     10.00      .00        .00        0         
11514018         506.98     9.00       .00        .00        0         
11514019         520.39     12.00      .00        .00        0         
11514021         509.70     9.30       .00        .00        0         
11515001         461.88     19.00      .00        .00        0         
11515002         481.09     15.00      .00        .00        0         
11515003         488.29     8.00       .00        .00        0         
11515004         481.77     13.00      .00        .00        0         
11515005         482.32     12.00      .00        .00        0         
11515006         482.87     12.00      .00        .00        0         
11515007         485.63     9.00       .00        .00        0         
11515008         486.87     9.00       .00        .00        0         
11515011         485.55     10.00      .00        .00        0         
11515014         493.36     13.00      .00        .00        0         
11515015         495.27     12.00      .00        .00        0         
11515017         488.29     10.00      .00        .00        0         
11602004         486.60     8.00       .00        .00        0         
11602005         485.67     9.00       .00        .00        0         
11602006         464.03     16.00      .00        .00        0         
11602007         463.86     14.00      .00        .00        0         
11602008         484.91     11.00      .00        .00        0         
11602010         496.17     13.00      .00        .00        0         
11602014         495.77     14.00      .00        .00        0         
11602016         522.89     9.00       .00        .00        0         
11603001         517.72     11.00      .00        .00        0         
11603002         518.67     20.00      .00        .00        0         
11603003         519.41     9.00       .00        .00        0         
11603008         510.75     8.00       .00        .00        0         
11603009         512.10     8.00       .00        .00        0         
11603011         512.18     8.00       .00        .00        0         
11603012         517.70     7.00       .00        .00        0         
11603013         514.55     7.00       .00        .00        0         
11603014         519.97     7.00       .00        .00        0         
11603017         515.37     5.00       .00        .00        0         
11603018         515.94     5.00       .00        .00        0         
11605001         457.80     16.00      .00        .00        0         
11605002         455.48     21.00      .00        .00        0         
11605003         454.15     26.00      .00        .00        0         
11606001         516.60     5.00       .00        .00        0         
11606003         452.67     20.00      .00        .00        0         
11607001         484.14     12.00      .00        .00        0         
11607002         495.19     13.00      .00        .00        0         
11607003         494.66     12.00      .00        .00        0         
11607004         494.14     14.00      .00        .00        0         
11607005         493.76     16.00      .00        .00        0         
11607006         492.25     16.00      .00        .00        0         
11607007         499.84     10.00      .00        .00        0         
11607008         518.57     11.00      .00        .00        0         
11607009         519.73     12.00      .00        .00        0         
11607010         520.73     10.00      .00        .00        0         
11607011         522.04     9.00       .00        .00        0         
11607012         518.66     9.00       .00        .00        0         
11607013         519.71     14.00      .00        .00        0         
11607014         523.69     8.00       .00        .00        0         
11607015         522.79     9.00       .00        .00        0         
11607016         522.14     9.00       .00        .00        0         
11607017         520.77     9.00       .00        .00        0         
11607018         522.81     8.00       .00        .00        0         
11608001         460.91     13.00      .00        .00        0         
11608002         468.43     13.00      .00        .00        0         
11608003         471.44     10.35      .00        .00        0         
11608006         483.10     12.00      .00        .00        0         
11608007         482.25     12.00      .00        .00        0         
11608008         481.66     11.00      .00        .00        0         
11608009         464.73     15.00      .00        .00        0         
11608010         465.23     16.00      .00        .00        0         
11608011         479.50     9.00       .00        .00        0         
11608012         482.50     10.00      .00        .00        0         
11609001         477.58     15.00      .00        .00        0         
11609002         478.68     13.00      .00        .00        0         
11609003         479.30     11.00      .00        .00        0         
11609004         479.84     9.00       .00        .00        0         
11609005         480.79     9.00       .00        .00        0         
11609006         481.11     9.00       .00        .00        0         
11609007         481.69     10.00      .00        .00        0         
11609012         475.81     14.00      .00        .00        0         
11609013         476.80     12.00      .00        .00        0         
11609014         482.07     11.00      .00        .00        0         
11609015         496.42     12.00      .00        .00        0         
11609016         498.68     11.00      .00        .00        0         
11609017         466.06     16.00      .00        .00        0         
11609018         500.39     9.00       .00        .00        0         
11609019         501.27     8.00       .00        .00        0         
11609021         483.26     9.00       .00        .00        0         
11609024         480.94     11.00      .00        .00        0         
11610001         521.61     9.00       .00        .00        0         
11610002         520.15     9.00       .00        .00        0         
11610003         518.81     8.00       .00        .00        0         
11610004         517.36     9.00       .00        .00        0         
11610005         516.16     11.00      .00        .00        0         
11610006         508.52     11.00      .00        .00        0         
11611001         482.46     14.00      .00        .00        0         
11611002         469.20     8.00       .00        .00        0         
11611003         451.74     22.00      .00        .00        0         
11611004         450.29     20.00      .00        .00        0         
11612001         492.15     16.00      .00        .00        0         
11612002         534.54     9.00       .00        .00        0         
11613001         575.05     14.00      .00        .00        0         
11613002         616.47     18.00      .00        .00        0         
11613003         628.61     3.00       .00        .00        0         
11613004         652.16     17.00      .00        .00        0         
11614001         449.62     21.00      .00        .00        0         
11615001         448.29     17.00      .00        .00        0         
11615002         447.06     22.00      .00        .00        0         
11616007         484.57     10.00      .00        .00        0         
11616008         486.05     11.00      .00        .00        0         
11616011         488.64     11.00      .00        .00        0         
11616016         489.97     11.00      .00        .00        0         
11701002         445.53     31.00      .00        .00        0         
11701003         444.41     33.00      .00        .00        0         
11701004         444.13     24.00      .00        .00        0         
11701005         443.78     24.00      .00        .00        0         
11701006         443.58     19.00      .00        .00        0         
11701007         484.73     11.00      .00        .00        0         
11701008         481.28     9.00       .00        .00        0         
11701009         478.05     8.00       .00        .00        0         
11701010         475.28     8.00       .00        .00        0         
11701011         472.43     9.00       .00        .00        0         
11701013         444.48     34.00      .00        .00        0         
11702001         512.74     8.00       .00        .00        0         
11702002         506.87     9.00       .00        .00        0         
11702003         484.44     12.00      .00        .00        0         
11702004         475.06     19.00      .00        .00        0         
11702005         458.17     12.00      .00        .00        0         
11702006         445.82     21.00      .00        .00        0         
11702012         478.90     17.00      .00        .00        0         
11705009         666.00     16.00      .00        .00        0         
11705010         686.36     22.00      .00        .00        0         
11705011         702.36     10.00      .00        .00        0         
11705012         710.09     15.00      .00        .00        0         
11705013         750.80     13.00      .00        .00        0         
11705014         788.15     11.00      .00        .00        0         
11705015         796.44     13.00      .00        .00        0         
11705016         763.79     11.00      .00        .00        0         
11706001         563.69     20.00      .00        .00        0         
11706002         556.90     9.00       .00        .00        0         
11706003         569.20     14.00      .00        .00        0         
11706004         603.70     8.00       .00        .00        0         
11706005         616.67     9.00       .00        .00        0         
11706006         628.04     8.00       .00        .00        0         
11706007         633.96     12.00      .00        .00        0         
11707001         759.28     16.00      .00        .00        0         
11707002         747.05     9.00       .00        .00        0         
11707003         701.44     17.00      .00        .00        0         
11707004         664.15     16.00      .00        .00        0         
11707005         549.35     9.00       .00        .00        0         
11710001         789.00     26.00      .00        .00        0         
11710002         781.51     12.00      .00        .00        0         
11710003         777.10     13.00      .00        .00        0         
11710004         772.63     14.00      .00        .00        0         
11710005         768.86     7.00       .00        .00        0         
11711001         653.52     11.00      .00        .00        0         
11712001         674.53     10.00      .00        .00        0         
11712002         697.12     10.00      .00        .00        0         
11712003         708.10     22.00      .00        .00        0         
11712004         711.66     17.00      .00        .00        0         
11712005         713.18     14.00      .00        .00        0         
11712006         715.16     17.00      .00        .00        0         
11712011         768.11     11.00      .00        .00        0         
11713001         720.30     12.00      .00        .00        0         
11713002         733.00     13.00      .00        .00        0         
11713003         736.84     11.00      .00        .00        0         
11713004         738.04     17.00      .00        .00        0         
11713005         770.53     13.00      .00        .00        0         
11713006         735.00     12.00      .00        .00        0         
11713007         772.50     14.00      .00        .00        0         
11713014         776.79     12.00      .00        .00        0         
11713018         757.77     18.00      .00        .00        0         
11714002         782.42     14.00      .00        .00        0         
11801001         526.92     7.00       .00        .00        0         
11801002         528.99     8.00       .00        .00        0         
11801003         530.06     10.00      .00        .00        0         
11801004         530.99     8.00       .00        .00        0         
11801005         532.53     7.00       .00        .00        0         
11801006         537.10     9.00       .00        .00        0         
11801007         555.10     8.00       .00        .00        0         
11801008         563.10     10.00      .00        .00        0         
11802001         580.38     20.00      .00        .00        0         
11802002         582.24     10.00      .00        .00        0         
11802003         584.10     17.00      .00        .00        0         
11802004         590.40     13.00      .00        .00        0         
11802005         601.28     22.00      .00        .00        0         
11803001         607.85     17.00      .00        .00        0         
11803002         630.27     14.00      .00        .00        0         
11803003         687.29     15.00      .00        .00        0         
11803004         711.00     22.00      .00        .00        0         
11803009         741.51     12.00      .00        .00        0         
11808001         542.39     5.00       .00        .00        0         
11808002         550.36     10.00      .00        .00        0         
11808003         557.01     10.00      .00        .00        0         
15016001         769.54     8.00       .00        .00        0         
15016002         802.89     10.00      .00        .00        0         
15103001         638.15     8.00       .00        .00        0         
15103002         625.37     10.00      .00        .00        0         
15103003         582.77     13.00      .00        .00        0         
15104001         608.61     11.00      .00        .00        0         
15104002         602.14     11.00      .00        .00        0         
15104003         599.33     10.00      .00        .00        0         
15104004         596.54     11.00      .00        .00        0         
15105001         581.75     8.00       .00        .00        0         
15105002         553.10     13.00      .00        .00        0         