[TITLE]
;;Project Title/Notes
 CID OCP - Design Storm D

[OPTIONS]
;;Option             Value
FLOW_UNITS           CFS
INFILTRATION         GREEN_AMPT
FLOW_ROUTING         DYNWAVE
LINK_OFFSETS         DEPTH
MIN_SLOPE            0
ALLOW_PONDING        NO
SKIP_STEADY_STATE    NO

START_DATE           09/01/2006
START_TIME           00:00:00
REPORT_START_DATE    09/01/2006
REPORT_START_TIME    00:00:00
END_DATE             09/03/2006
END_TIME             00:15:00
SWEEP_START          01/01
SWEEP_END            12/31
DRY_DAYS             0
REPORT_STEP          00:15:00
WET_STEP             00:01:00
DRY_STEP             24:00:00
ROUTING_STEP         0:00:10 

INERTIAL_DAMPING     PARTIAL
NORMAL_FLOW_LIMITED  FROUDE
FORCE_MAIN_EQUATION  H-W
VARIABLE_STEP        0.75
LENGTHENING_STEP     10
MIN_SURFAREA         12.557
MAX_TRIALS           8
HEAD_TOLERANCE       0.005
SYS_FLOW_TOL         5
LAT_FLOW_TOL         5
MINIMUM_STEP         0
THREADS              1

[EVAPORATION]
;;Data Source    Parameters
;;-------------- ----------------
CONSTANT         0.0
DRY_ONLY         NO

[RAINGAGES]
;;Name           Format    Interval SCF      Source    
;;-------------- --------- ------ ------ ----------
EventD           CUMULATIVE 0.25000  1.0      TIMESERIES RN#14           

[SUBCATCHMENTS]
;;Name           Rain Gage        Outlet           Area     %Imperv  Width    %Slope   CurbLen  SnowPack        
;;-------------- ---------------- ---------------- -------- -------- -------- -------- -------- ----------------
S029-005#1       EventD           S029-005         17.11    8.2      937.114  0.1      0                        
S029-007#1       EventD           S029-007         6.035    8.1      523.637  0.1      0                        
S029-010#1       EventD           S029-010         7.363    20.4     446.208  0.1      0                        
S029-016#1       EventD           S029-016         17.28    22.5     656.462  3.16     0                        
S029-024#1       EventD           S029-024         15.485   64.6     671.591  3.76     0                        
S029-026#1       EventD           S029-026         7.822    20.4     297.346  6.46     0                        
S029-071#1       EventD           S029-071         14.836   36.6     827.132  0.1      0                        
S029-827#1       EventD           S029-827         15.866   59.4     594.723  3.06     0                        
S030-025#1       EventD           S030-025         4.71     29.1     760.867  0.8      0                        
S030-039#1       EventD           S030-039         11.602   65.9     526.828  0.25     0                        
S030-053#1       EventD           S030-053         11.374   72.9     451.661  0.11     0                        
S030-065#1       EventD           S030-065         5.747    55.1     410.01   0.1      0                        
S030-074#1       EventD           S030-074         31.403   32       964.934  0.65     0                        
S030-080#1       EventD           S030-080         6.687    52.9     421.246  0.1      0                        
S030-098#1       EventD           S030-098         54.499   71.6     1337.68  0.17     0                        
S030-106#1       EventD           S030-106         4.118    68.4     336.214  0.1      0                        
S030-113#1       EventD           S030-113         13.605   66.6     471.019  0.04     0                        
S030-117#1       EventD           S030-117         9.871    73.4     505.191  0.24     0                        
S030-124#1       EventD           S030-124         8.771    24       498.959  0.16     0                        
S030-126#1       EventD           S030-126         6.503    62.5     506.839  0.1      0                        
S030-128#1       EventD           S030-128         8.098    47.6     442.006  0.1      0                        
S030-132#1       EventD           S030-132         3.614    82.1     280.944  0.1      0                        
S030-137#1       EventD           S030-137         5.232    67.9     212.732  2.54     0                        
S030-153#1       EventD           S030-153         22.148   39.9     589.006  3.66     0                        
S030-166#1       EventD           S030-166         6.062    21.1     351.251  20.71    0                        
S030-273#1       EventD           S030-273         1.392    28.3     120.226  2.29     0                        
S030-281#1       EventD           S030-281         0.429    40.3     88.457   7.98     0                        
S030-301#1       EventD           S030-301         13.377   66.5     484.079  1.92     0                        
S030-308#1       EventD           S030-308         8.635    58.8     388.409  5.72     0                        
S030-323#1       EventD           S030-323         11.936   76.6     559.641  1.82     0                        
S030-342#1       EventD           S030-342         10.126   43.4     478.207  9.32     0                        
S030-366#1       EventD           S030-366         26.006   74.9     665.602  5.46     0                        
S030-397#1       EventD           S030-397         4.384    84.7     315.107  6.24     0                        
S030-408#1       EventD           S030-408         1.758    52.8     118.761  4.96     0                        
S030-420#1       EventD           S030-420         4.182    40.4     207.484  5.25     0                        
S030-426#1       EventD           S030-426         4.382    53.8     321.236  2.77     0                        
S030-433#1       EventD           S030-433         1.856    61.2     174.166  5.1      0                        
S030-458#1       EventD           S030-458         8.748    44.8     443.987  3.95     0                        
S030-538#1       EventD           S030-538         5.767    81.3     291.77   0.03     0                        
S030-559#1       EventD           S030-559         4.66     65       229.125  1.35     0                        
S030-569#1       EventD           S030-569         0.618    61.6     146.623  1.6      0                        
S030-592#1       EventD           S030-592         7.482    46.8     269.135  6.68     0                        
S030-679#1       EventD           S030-679         18.194   36.3     559.815  0.5      0                        
S030-691#1       EventD           S030-691         2.276    44.9     229.728  0.1      0                        
S030-693#1       EventD           S030-693         10.048   20.4     707.904  0.36     0                        
S030-698#1       EventD           S030-698         15.397   63.7     793.64   0.1      0                        
S030-700#1       EventD           S030-700         14.55    39.2     552.483  0.01     0                        
S030-704Ta#1     EventD           S030-704Ta       20.815   31.5     1181.39  0.1      0                        
S030-851#1       EventD           S030-851         3.967    42       253.538  1.82     0                        
S030-883#1       EventD           S030-883         28.506   80.9     652.173  0.1      0                        
S031-063#1       EventD           S031-063         15.107   13.9     339.134  3.87     0                        
S033-064Ta#1     EventD           S033-064Ta       7.153    12.3     625.967  8.46     0                        
S030-337#1       EventD           S030-337         10.003   62.5     491.25   0.1      0                        

[SUBAREAS]
;;Subcatchment   N-Imperv   N-Perv     S-Imperv   S-Perv     PctZero    RouteTo    PctRouted 
;;-------------- ---------- ---------- ---------- ---------- ---------- ---------- ----------
S029-005#1       0.014      0.03       0.08       0.08       0          OUTLET    
S029-007#1       0.014      0.03       0.08       0.08       0          OUTLET    
S029-010#1       0.014      0.03       0.08       0.08       0          OUTLET    
S029-016#1       0.014      0.03       0.08       0.08       0          OUTLET    
S029-024#1       0.014      0.03       0.08       0.08       0          OUTLET    
S029-026#1       0.014      0.03       0.08       0.08       0          OUTLET    
S029-071#1       0.014      0.03       0.08       0.08       0          OUTLET    
S029-827#1       0.014      0.03       0.08       0.08       0          OUTLET    
S030-025#1       0.014      0.03       0.08       0.08       0          OUTLET    
S030-039#1       0.014      0.03       0.08       0.08       0          OUTLET    
S030-053#1       0.014      0.03       0.08       0.08       0          OUTLET    
S030-065#1       0.014      0.03       0.08       0.08       0          OUTLET    
S030-074#1       0.014      0.03       0.08       0.08       0          OUTLET    
S030-080#1       0.014      0.03       0.08       0.08       0          OUTLET    
S030-098#1       0.014      0.03       0.08       0.08       0          OUTLET    
S030-106#1       0.014      0.03       0.08       0.08       0          OUTLET    
S030-113#1       0.014      0.03       0.08       0.08       0          OUTLET    
S030-117#1       0.014      0.03       0.08       0.08       0          OUTLET    
S030-124#1       0.014      0.03       0.08       0.08       0          OUTLET    
S030-126#1       0.014      0.03       0.08       0.08       0          OUTLET    
S030-128#1       0.014      0.03       0.08       0.08       0          OUTLET    
S030-132#1       0.014      0.03       0.08       0.08       0          OUTLET    
S030-137#1       0.014      0.03       0.08       0.08       0          OUTLET    
S030-153#1       0.014      0.03       0.08       0.08       0          OUTLET    
S030-166#1       0.014      0.03       0.08       0.08       0          OUTLET    
S030-273#1       0.014      0.03       0.08       0.08       0          OUTLET    
S030-281#1       0.014      0.03       0.08       0.08       0          OUTLET    
S030-301#1       0.014      0.03       0.08       0.08       0          OUTLET    
S030-308#1       0.014      0.03       0.08       0.08       0          OUTLET    
S030-323#1       0.014      0.03       0.08       0.08       0          OUTLET    
S030-342#1       0.014      0.03       0.08       0.08       0          OUTLET    
S030-366#1       0.014      0.03       0.08       0.08       0          OUTLET    
S030-397#1       0.014      0.03       0.08       0.08       0          OUTLET    
S030-408#1       0.014      0.03       0.08       0.08       0          OUTLET    
S030-420#1       0.014      0.03       0.08       0.08       0          OUTLET    
S030-426#1       0.014      0.03       0.08       0.08       0          OUTLET    
S030-433#1       0.014      0.03       0.08       0.08       0          OUTLET    
S030-458#1       0.014      0.03       0.08       0.08       0          OUTLET    
S030-538#1       0.014      0.03       0.08       0.08       0          OUTLET    
S030-559#1       0.014      0.03       0.08       0.08       0          OUTLET    
S030-569#1       0.014      0.03       0.08       0.08       0          OUTLET    
S030-592#1       0.014      0.03       0.08       0.08       0          OUTLET    
S030-679#1       0.014      0.03       0.08       0.08       0          OUTLET    
S030-691#1       0.014      0.03       0.08       0.08       0          OUTLET    
S030-693#1       0.014      0.03       0.08       0.08       0          OUTLET    
S030-698#1       0.014      0.03       0.08       0.08       0          OUTLET    
S030-700#1       0.014      0.03       0.08       0.08       0          OUTLET    
S030-704Ta#1     0.014      0.03       0.08       0.08       0          OUTLET    
S030-851#1       0.014      0.03       0.08       0.08       0          OUTLET    
S030-883#1       0.014      0.03       0.08       0.08       0          OUTLET    
S031-063#1       0.014      0.03       0.08       0.08       0          OUTLET    
S033-064Ta#1     0.014      0.03       0.08       0.08       0          OUTLET    
S030-337#1       0.014      0.03       0.08       0.08       0          OUTLET    

[INFILTRATION]
;;Subcatchment   Suction    Ksat       IMD       
;;-------------- ---------- ---------- ----------
S029-005#1       10.74      0.04       0.24      
S029-007#1       10.74      0.04       0.24      
S029-010#1       10.74      0.04       0.24      
S029-016#1       10.74      0.04       0.24      
S029-024#1       10.74      0.04       0.24      
S029-026#1       10.74      0.04       0.24      
S029-071#1       10.74      0.04       0.24      
S029-827#1       10.74      0.04       0.24      
S030-025#1       10.74      0.04       0.24      
S030-039#1       10.74      0.04       0.24      
S030-053#1       10.74      0.04       0.24      
S030-065#1       10.74      0.04       0.24      
S030-074#1       10.74      0.04       0.24      
S030-080#1       10.74      0.04       0.24      
S030-098#1       10.74      0.04       0.24      
S030-106#1       10.74      0.04       0.24      
S030-113#1       10.74      0.04       0.24      
S030-117#1       10.74      0.04       0.24      
S030-124#1       10.74      0.04       0.24      
S030-126#1       10.74      0.04       0.24      
S030-128#1       10.74      0.04       0.24      
S030-132#1       10.74      0.04       0.24      
S030-137#1       10.74      0.04       0.24      
S030-153#1       10.74      0.04       0.24      
S030-166#1       10.74      0.04       0.24      
S030-273#1       10.74      0.04       0.24      
S030-281#1       10.74      0.04       0.24      
S030-301#1       10.74      0.04       0.24      
S030-308#1       10.74      0.04       0.24      
S030-323#1       10.74      0.04       0.24      
S030-342#1       10.74      0.04       0.24      
S030-366#1       10.74      0.04       0.24      
S030-397#1       10.74      0.04       0.24      
S030-408#1       10.74      0.04       0.24      
S030-420#1       10.74      0.04       0.24      
S030-426#1       10.74      0.04       0.24      
S030-433#1       10.74      0.04       0.24      
S030-458#1       10.74      0.04       0.24      
S030-538#1       10.74      0.04       0.24      
S030-559#1       10.74      0.04       0.24      
S030-569#1       10.74      0.04       0.24      
S030-592#1       10.74      0.04       0.24      
S030-679#1       10.74      0.04       0.24      
S030-691#1       10.74      0.04       0.24      
S030-693#1       10.74      0.04       0.24      
S030-698#1       10.74      0.04       0.24      
S030-700#1       10.74      0.04       0.24      
S030-704Ta#1     10.74      0.04       0.24      
S030-851#1       10.74      0.04       0.24      
S030-883#1       10.74      0.04       0.24      
S031-063#1       10.74      0.04       0.24      
S033-064Ta#1     10.74      0.04       0.24      
S030-337#1       10.74      0.04       0.24      

[JUNCTIONS]
;;Name           Elevation  MaxDepth   InitDepth  SurDepth   Aponded   
;;-------------- ---------- ---------- ---------- ---------- ----------
S028-001         813.65     21         0          0          0         
S028-002         809.03     18.16      0          0          0         
S028-307         804.7      21.2       0          0          0         
S029-005         739.22     11.3       0          0          0         
S029-006         738.82     11.92      0          0          0         
S029-007         738.5      11.43      0          0          0         
S029-008         738.2      11.53      0          0          0         
S029-009         737.76     11.53      0          0          0         
S029-010         737        11.69      0          0          0         
S029-011         736.4      12.83      0          0          0         
S029-014         739.03     11.6       0          0          0         
S029-015         740.96     9.3        0          0          0         
S029-016         741.68     8.54       0          0          0         
S029-017         741.97     8.6        0          0          0         
S029-018         743.34     8.66       0          0          0         
S029-020         741.82     8.8        0          0          0         
S029-021         742.3      8.8        0          0          0         
S029-024         802.99     22.37      0          0          0         
S029-025         785.7      17.6       0          0          0         
S029-026         759.31     9.85       0          0          0         
S029-027         741.88     13.5       0          0          0         
S029-058         747.422    24.5       0          0          0         
S029-059         747.02     7.27       0          0          0         
S029-060         746.23     11.74      0          0          0         
S029-061         745.9      8.33       0          0          0         
S029-062         744.922    4          0          0          0         
S029-063         743.99     7.9        0          0          0         
S029-064         744.1      18.7       0          0          0         
S029-065         729.85     20.87      0          0          0         
S029-066         735.05     15.96      0          0          0         
S029-067         737        14.07      0          0          0         
S029-068         736.44     13.1       0          0          0         
S029-071         722.14     28.65      0          0          0         
S029-073         730.12     21         0          0          0         
S029-075         793.35     18.6       0          0          0         
S029-085         799.666    16         0          0          0         
S029-304         777.366    21         0          0          0         
S029-620         719.171    31         0          0          0         
S029-825         747.222    28.8       0          0          0         
S029-827         761        11         0          0          0         
S030-025         735.57     11.48      0          0          0         
S030-032         735.67     13.16      0          0          0         
S030-035         734.79     13.46      0          0          0         
S030-039         733.59     13.65      0          0          0         
S030-041         734.51     13.65      0          0          0         
S030-050         733.97     17.95      0          0          0         
S030-052         732.6      13.43      0          0          0         
S030-053         732.71     11.97      0          0          0         
S030-054         733.28     12.08      0          0          0         
S030-057         740.23     9.5        0          0          0         
S030-059         733.34     13.55      0          0          0         
S030-065         732.29     16.95      0          0          0         
S030-066         732.57     16.7       0          0          0         
S030-068         737.85     10.62      0          0          0         
S030-074         735.41     11.83      0          0          0         
S030-076         735.38     11.96      0          0          0         
S030-080         731.41     17.82      0          0          0         
S030-098         731.37     14.63      0          0          0         
S030-102         730.57     13.73      0          0          0         
S030-106         730.6      16.59      0          0          0         
S030-107         731.1      16.2       0          0          0         
S030-109         732.77     15.04      0          0          0         
S030-110         736.76     12.6       0          0          0         
S030-111         737.588    14         0          0          0         
S030-112         734.7      13.6       0          0          0         
S030-113         731.13     17         0          0          0         
S030-116         730.29     16.07      0          0          0         
S030-117         729.26     17.15      0          0          0         
S030-118         729.22     16.14      0          0          0         
S030-119         728.43     15.82      0          0          0         
S030-120         727.74     17.92      0          0          0         
S030-123         729.01     17.6       0          0          0         
S030-124         735.39     13.69      0          0          0         
S030-125         735.23     13.4       0          0          0         
S030-126         734.68     13.78      0          0          0         
S030-127         733.61     15.23      0          0          0         
S030-128         730.72     16.96      0          0          0         
S030-129         723.42     23.2       0          0          0         
S030-130         729.796    19.76      0          0          0         
S030-131         731.95     15.85      0          0          0         
S030-132         736.8      11         0          0          0         
S030-133         728.81     19.19      0          0          0         
S030-134         729.78     16.51      0          0          0         
S030-137         731.5      15.89      0          0          0         
S030-148         735.05     12.3       0          0          0         
S030-149         735.53     11.1       0          0          0         
S030-150         735.97     14.3       0          0          0         
S030-151         737.33     14.24      0          0          0         
S030-152         742.164    11.88      0          0          0         
S030-153         741.62     13.5       0          0          0         
S030-166         747.3      9          0          0          0         
S030-167         743.76     7.89       0          0          0         
S030-273         905.25     33.22      0          0          0         
S030-281         901.55     15.75      0          0          0         
S030-284         897.79     15.15      0          0          0         
S030-301         894.46     16.2       0          0          0         
S030-308         872.53     22.4       0          0          0         
S030-309         876.37     21.6       0          0          0         
S030-310         881.44     20.55      0          0          0         
S030-312         889.76     18.9       0          0          0         
S030-323         893.23     30.4       0          0          0         
S030-342         839.32     27.2       0          0          0         
S030-351         860.03     45.4       0          0          0         
S030-352         870.87     42.18      0          0          0         
S030-365         851.5      36.6       0          0          0         
S030-366         830.7      31         0          0          0         
S030-375         773.06     9.3        0          0          0         
S030-376         767.12     10.4       0          0          0         
S030-378         753.3      21.3       0          0          0         
S030-380         804        7.3        0          0          0         
S030-381         792.96     11         0          0          0         
S030-382         804.63     14.4       0          0          0         
S030-388         821.24     16.1       0          0          0         
S030-389         806.36     10.1       0          0          0         
S030-390         804.79     10.7       0          0          0         
S030-397         817.47     11         0          0          0         
S030-397A        806.82     21.18      0          0          0         
S030-400         805.98     6.6        0          0          0         
S030-408         776.41     7.45       0          0          0         
S030-409         769.91     12.4       0          0          0         
S030-411         758.27     22.64      0          0          0         
S030-412         743.7      37         0          0          0         
S030-413         765.69     18.15      0          0          0         
S030-414         800.33     29.4       0          0          0         
S030-419         782.54     15.5       0          0          0         
S030-420         791.96     11.94      0          0          0         
S030-423         799.05     10.3       0          0          0         
S030-424         801.066    17.96      0          0          0         
S030-425         806.57     23.7       0          0          0         
S030-426         826.73     36.8       0          0          0         
S030-427         853.39     11.3       0          0          0         
S030-428         861.64     8.2        0          0          0         
S030-432         860.28     6.68       0          0          0         
S030-433         868.32     9.35       0          0          0         
S030-455         903.38     32.42      0          0          0         
S030-456         902.06     26.32      0          0          0         
S030-457         907.27     13.46      0          0          0         
S030-458         900.52     20.32      0          0          0         
S030-459         872.23     41.55      0          0          0         
S030-460         863.02     38.5       0          0          0         
S030-461         841.16     25.7       0          0          0         
S030-462         801.08     10         0          0          0         
S030-529         739.79     6.85       0          0          0         
S030-531         734.5      13.78      0          0          0         
S030-538         734.6      14.13      0          0          0         
S030-539         734.98     13.81      0          0          0         
S030-542         735.31     14.3       0          0          0         
S030-544         736        15.1       0          0          0         
S030-545         736.14     17.58      0          0          0         
S030-555         736.81     15.02      0          0          0         
S030-559         737.03     13.68      0          0          0         
S030-564         737.08     13.72      0          0          0         
S030-566         738.08     9.12       0          0          0         
S030-569         738.79     5.6        0          0          0         
S030-581         735.24     14.1       0          0          0         
S030-583         848.21     13.7       0          0          0         
S030-584         851.56     11.1       0          0          0         
S030-592         852.96     9          0          0          0         
S030-679         739.628    13         0          0          0         
S030-680         739        19         0          0          0         
S030-691         730.9      18.52      0          0          0         
S030-692         729.9      20.23      0          0          0         
S030-693         728.9      18.85      0          0          0         
S030-694         729.8      17.68      0          0          0         
S030-695         729.69     17.79      0          0          0         
S030-696         729.1      18.38      0          0          0         
S030-698         728.3      23         0          0          0         
S030-699         727.8      23.5       0          0          0         
S030-700         726.2      22.06      0          0          0         
S030-701         726.8      23.5       0          0          0         
S030-702         726.2      24.1       0          0          0         
S030-703         725.7      21.12      0          0          0         
S030-704         725.2      22.09      0          0          0         
S030-704Ta       724.63     25.67      0          0          0         
S030-704Tb       724.8      26         0          0          0         
S030-705         725.1      21.7       0          0          0         
S030-706         764.847    17.84      0          0          0         
S030-715         742.203    12.52      0          0          0         
S030-716         742.418    11.96      0          0          0         
S030-717         739.804    12.62      0          0          0         
S030-718         734        14         0          0          0         
S030-721         803.25     20.46      0          0          0         
S030-851         806.282    7          0          0          0         
S030-854         746.78     4.2        0          0          0         
S030-883         736.96     13.61      0          0          0         
S030-884         735.26     13.65      0          0          0         
S030-989         732.36     15.63      0          0          0         
S031-059         830.121    11         0          0          0         
S031-063         841        11         0          0          0         
S031-778         821.69     9.09       0          0          0         
S031-779         817.003    9          0          0          0         
S033-064Ta       746        6          0          0          0         
SFPS_FM          720.171    30         0          0          0         
S030-475         893.9      31         0          0          0         
S030-474         911.81     22.9       0          0          0         
S030-473         915.46     21.4       0          0          0         
S030-337         918.17     18.3       0          0          0         
S030-324         895.9      29         0          0          0         

[OUTFALLS]
;;Name           Elevation  Type       Stage Data       Gated    Route To        
;;-------------- ---------- ---------- ---------------- -------- ----------------
S029-813         721        FREE                        NO                       
S029-CSOII       734        FIXED      0                NO                       
S029-CSOIV       706.995    FREE                        NO                       

[STORAGE]
;;Name           Elev.    MaxDepth   InitDepth  Shape      Curve Name/Params            N/A      Fevap    Psi      Ksat     IMD     
;;-------------- -------- ---------- ----------- ---------- ---------------------------- -------- --------          -------- --------