[TITLE]
;;Project Title/Notes

[OPTIONS]
;;Option             Value
FLOW_UNITS           LPS
INFILTRATION         HORTON
FLOW_ROUTING         DYNWAVE
LINK_OFFSETS         DEPTH
MIN_SLOPE            0
ALLOW_PONDING        NO
SKIP_STEADY_STATE    NO

IGNORE_RAINFALL      YES
IGNORE_SNOWMELT      YES
IGNORE_GROUNDWATER   YES
IGNORE_QUALITY       YES
START_DATE           05/09/2018
START_TIME           00:00:00
REPORT_START_DATE    05/09/2018
REPORT_START_TIME    00:00:00
END_DATE             05/10/2018
END_TIME             00:00:00
SWEEP_START          01/01
SWEEP_END            01/01
DRY_DAYS             0.000000
REPORT_STEP          00:01:00
WET_STEP             00:01:00
DRY_STEP             00:01:00
ROUTING_STEP         0:00:10 

INERTIAL_DAMPING     NONE
NORMAL_FLOW_LIMITED  SLOPE
FORCE_MAIN_EQUATION  H-W
VARIABLE_STEP        0.00
LENGTHENING_STEP     10
MIN_SURFAREA         1.14
MAX_TRIALS           8
HEAD_TOLERANCE       0.005000
SYS_FLOW_TOL         5
LAT_FLOW_TOL         5
MINIMUM_STEP         0
THREADS              1

[EVAPORATION]
;;Data Source    Parameters
;;-------------- ----------------
CONSTANT         0.0
DRY_ONLY         NO

[JUNCTIONS]
;;Name           Elevation  MaxDepth   InitDepth  SurDepth   Aponded   
;;-------------- ---------- ---------- ---------- ---------- ----------
; J/13
10000            14.588000  1.097000   0.000000   0.000000   0.000000  
; J/12
10001            12.683000  1.554000   0.000000   0.000000   0.000000  
; J/11
10002            10.235000  1.616000   0.000000   0.000000   0.000000  
; M/1
10003            19.602000  1.067000   0.000000   0.000000   0.000000  
; M/2
10004            21.989000  1.051000   0.000000   0.000000   0.000000  
; M/2A
10005            22.330000  1.280000   0.000000   0.000000   0.000000  
; J/9
10006            8.269000   1.220000   0.000000   0.000000   0.000000  
; J/8
10007            3.774000   2.615000   0.000000   0.000000   0.000000  
; K/1
10008            6.020000   2.530000   0.000000   0.000000   0.000000  
; K/2
10009            12.720000  1.670000   0.000000   0.000000   0.000000  
; K/3
10010            13.107000  1.508000   0.000000   0.000000   0.000000  
; S1/2
10011            7.770000   3.490000   0.000000   0.000000   0.000000  
; S2/1
10012            6.050000   1.650000   0.000000   0.000000   0.000000  
; S3/1
10013            5.470000   2.330000   0.000000   0.000000   0.000000  
; S4/1
10014            4.870000   2.830000   0.000000   0.000000   0.000000  
; JA/1
10015            4.345000   3.075000   0.000000   0.000000   0.000000  
; S4/2
10016            5.760000   2.000000   0.000000   0.000000   0.000000  
; S6/1
10017            4.150000   2.550000   0.000000   0.000000   0.000000  
; S6/2
10018            6.600000   1.200000   0.000000   0.000000   0.000000  
; JA/5
10019            10.802000  3.402000   0.000000   0.000000   0.000000  
; JA/6
10020            12.857000  1.585000   0.000000   0.000000   0.000000  
; GN/1
10021            13.850000  1.050000   0.000000   0.000000   0.000000  
; GN/1A
10022            15.950000  1.550000   0.000000   0.000000   0.000000  
; GN/2
10023            19.300000  1.200000   0.000000   0.000000   0.000000  
; GN/3
10024            19.500000  1.000000   0.000000   0.000000   0.000000  
; JA/7
10025            16.539000  3.529000   0.000000   0.000000   0.000000  
; JB/1
10026            16.935000  1.344000   0.000000   0.000000   0.000000  
; B/12
10027            11.619000  1.067000   0.000000   0.000000   0.000000  
; B/11
10028            9.672000   1.091000   0.000000   0.000000   0.000000  
; B/10
10029            8.782000   1.027000   0.000000   0.000000   0.000000  
; B/9
10030            6.246000   1.350000   0.000000   0.000000   0.000000  
; B/8
10031            5.124000   1.408000   0.000000   0.000000   0.000000  
; BA/1
10032            7.343000   0.920000   0.000000   0.000000   0.000000  
; H/1
10033            5.392000   0.457000   0.000000   0.000000   0.000000  
; H/2
10034            6.060000   0.603000   0.000000   0.000000   0.000000  
; H/3
10035            6.578000   1.457000   0.000000   0.000000   0.000000  
; H/4
10036            7.437000   1.588000   0.000000   0.000000   0.000000  
; H/5
10037            9.138000   0.905000   0.000000   0.000000   0.000000  
; JB/4
10038            27.774000  1.371000   0.000000   0.000000   0.000000  
; JB/3
10039            20.797000  1.310000   0.000000   0.000000   0.000000  
; JB/2
10040            19.590000  1.307000   0.000000   0.000000   0.000000  
; JC/3
10041            17.100000  1.970000   0.000000   0.000000   0.000000  
; JC/2
10042            11.461000  1.320000   0.000000   0.000000   0.000000  
; JC/1
10043            9.376000   1.344000   0.000000   0.000000   0.000000  
; JA/4
10044            7.026000   1.186000   0.000000   0.000000   0.000000  
; A/15
10045            14.400000  1.200000   0.000000   0.000000   0.000000  
; A/16
10046            12.700000  1.200000   0.000000   0.000000   0.000000  
; A/17
10047            11.400000  1.200000   0.000000   0.000000   0.000000  
; A/18
10048            11.100000  2.900000   0.000000   0.000000   0.000000  
; UKN
10049            10.970000  0.914000   0.000000   0.000000   0.000000  
; D/12
10050            20.300000  1.200000   0.000000   0.000000   0.000000  
; B/13
10051            18.300000  2.200000   0.000000   0.000000   0.000000  
; B/14
10052            18.000000  1.200000   0.000000   0.000000   0.000000  
; B/11
10053            22.800000  1.200000   0.000000   0.000000   0.000000  
; C/10
10054            18.395000  1.858000   0.000000   0.000000   0.000000  
; E/9
10055            24.800000  1.200000   0.000000   0.000000   0.000000  
; C/8
10056            19.836000  0.950000   0.000000   0.000000   0.000000  
; C/7
10057            21.830000  1.070000   0.000000   0.000000   0.000000  
; F/2
10058            25.860000  0.540000   0.000000   0.000000   0.000000  
; F/1
10059            28.100000  1.230000   0.000000   0.000000   0.000000  
; A/3
10060            24.780000  1.720000   0.000000   0.000000   0.000000  
; F/2A
10061            25.080000  1.370000   0.000000   0.000000   0.000000  
; A/4
10062            22.840000  1.410000   0.000000   0.000000   0.000000  
; A/5
10063            22.600000  1.900000   0.000000   0.000000   0.000000  
; A/5A
10064            18.470000  1.150000   0.000000   0.000000   0.000000  
; C/6
10065            28.880000  0.950000   0.000000   0.000000   0.000000  
; 46
10066            3.990000   1.620000   0.000000   0.000000   0.000000  
; 41
10067            1.990000   4.744000   0.000000   0.000000   0.000000  
; 39
10068            2.070000   3.440000   0.000000   0.000000   0.000000  
; 33
10069            3.390000   2.430000   0.000000   0.000000   0.000000  
; 45
10070            6.540000   1.090000   0.000000   0.000000   0.000000  
; 44
10071            8.190000   1.150000   0.000000   0.000000   0.000000  
; 43
10072            13.040000  1.490000   0.000000   0.000000   0.000000  
; 38
10073            10.860000  1.380000   0.000000   0.000000   0.000000  
; 39
10074            13.720000  2.038000   0.000000   0.000000   0.000000  
; 37
10075            15.890000  1.400000   0.000000   0.000000   0.000000  
; 35
10076            20.090000  2.060000   0.000000   0.000000   0.000000  
; 34
10077            22.900000  1.530000   0.000000   0.000000   0.000000  
; 32
10078            3.680000   2.043000   0.000000   0.000000   0.000000  
; 26
10079            16.210000  1.200000   0.000000   0.000000   0.000000  
; 27
10080            15.300000  1.180000   0.000000   0.000000   0.000000  
; 28
10081            13.480000  1.260000   0.000000   0.000000   0.000000  
; 20
10082            22.670000  0.700000   0.000000   0.000000   0.000000  
; 21
10083            20.130000  1.400000   0.000000   0.000000   0.000000  
; 19
10084            18.960000  1.840000   0.000000   0.000000   0.000000  
; 18
10085            19.260000  2.340000   0.000000   0.000000   0.000000  
; 4
10086            27.490000  1.250000   0.000000   0.000000   0.000000  
; 5
10087            25.880000  1.780000   0.000000   0.000000   0.000000  
; 25
10088            8.670000   3.180000   0.000000   0.000000   0.000000  
; 24
10089            13.510000  2.590000   0.000000   0.000000   0.000000  
; 23
10090            20.170000  1.190000   0.000000   0.000000   0.000000  
; 6
10091            19.350000  1.090000   0.000000   0.000000   0.000000  
; 7
10092            18.950000  1.650000   0.000000   0.000000   0.000000  
; 8
10093            11.750000  1.600000   0.000000   0.000000   0.000000  
; 9
10094            10.400000  2.110000   0.000000   0.000000   0.000000  
; 12
10095            10.500000  2.700000   0.000000   0.000000   0.000000  
; 11
10096            16.820000  1.949000   0.000000   0.000000   0.000000  
; 1
10097            7.590000   2.860000   0.000000   0.000000   0.000000  
; 2
10098            7.030000   1.120000   0.000000   0.000000   0.000000  
; 13
10099            6.300000   1.140000   0.000000   0.000000   0.000000  
; 14
10100            5.860000   1.100000   0.000000   0.000000   0.000000  
; 16
10101            4.810000   1.720000   0.000000   0.000000   0.000000  
; 15
10102            5.320000   1.000000   0.000000   0.000000   0.000000  
; 29
10103            4.600000   2.200000   0.000000   0.000000   0.000000  
; 30
10104            4.360000   2.450000   0.000000   0.000000   0.000000  
; 31
10105            4.140000   2.420000   0.000000   0.000000   0.000000  
; A12
10106            28.810000  2.380000   0.000000   0.000000   0.000000  
; A13
10107            35.530000  1.180000   0.000000   0.000000   0.000000  
; A11
10108            24.000000  1.550000   0.000000   0.000000   0.000000  
; A10
10109            23.040000  1.580000   0.000000   0.000000   0.000000  
; A9
10110            19.530000  1.600000   0.000000   0.000000   0.000000  
; J1
10111            22.220000  1.190000   0.000000   0.000000   0.000000  
; A8
10112            12.830000  2.020000   0.000000   0.000000   0.000000  
; A2
10113            8.180000   1.910000   0.000000   0.000000   0.000000  
; A1
10114            7.950000   1.950000   0.000000   0.000000   0.000000  
; X4
10115            7.890000   2.000000   0.000000   0.000000   0.000000  
; X3
10116            7.430000   2.380000   0.000000   0.000000   0.000000  
; X2
10117            3.130000   2.130000   0.000000   0.000000   0.000000  
; B2
10118            9.460000   1.310000   0.000000   0.000000   0.000000  
; B1
10119            8.260000   2.780000   0.000000   0.000000   0.000000  
; C1
10120            8.480000   2.390000   0.000000   0.000000   0.000000  
; K1
10121            8.620000   1.620000   0.000000   0.000000   0.000000  
; K2
10122            9.460000   1.170000   0.000000   0.000000   0.000000  
; C2
10123            11.360000  1.750000   0.000000   0.000000   0.000000  
; C3
10124            11.680000  3.050000   0.000000   0.000000   0.000000  
; G1
10125            12.200000  2.820000   0.000000   0.000000   0.000000  
; C4
10126            15.500000  2.040000   0.000000   0.000000   0.000000  
; C5
10127            15.750000  1.390000   0.000000   0.000000   0.000000  
; C6
10128            24.600000  1.340000   0.000000   0.000000   0.000000  
; C7
10129            27.710000  1.190000   0.000000   0.000000   0.000000  
; D1
10130            24.180000  1.200000   0.000000   0.000000   0.000000  
; D2
10131            26.590000  1.230000   0.000000   0.000000   0.000000  
; E1
10132            30.390000  2.180000   0.000000   0.000000   0.000000  
; 49
10133            15.690000  1.990000   0.000000   0.000000   0.000000  
; 48
10134            12.550000  2.740000   0.000000   0.000000   0.000000  
; 44
10135            6.340000   2.395000   0.000000   0.000000   0.000000  
; 45
10136            9.970000   1.170000   0.000000   0.000000   0.000000  
; 43
10137            5.985000   1.755000   0.000000   0.000000   0.000000  
; 46
10138            8.245000   2.210000   0.000000   0.000000   0.000000  
; 47
10139            13.480000  1.995000   0.000000   0.000000   0.000000  
; 37
10140            5.640000   1.775000   0.000000   0.000000   0.000000  
; 36
10141            3.266000   2.654000   0.000000   0.000000   0.000000  
; 35
10142            2.659000   3.025000   0.000000   0.000000   0.000000  
; UKN
10143            5.560000   2.080000   0.000000   0.000000   0.000000  
; 33
10144            3.090000   2.607000   0.000000   0.000000   0.000000  
; 32
10145            5.790000   0.650000   0.000000   0.000000   0.000000  
; 52
10146            2.451000   2.897000   0.000000   0.000000   0.000000  
; 19
10147            2.252000   2.991000   0.000000   0.000000   0.000000  
; 34
10148            2.000000   3.001000   0.000000   0.000000   0.000000  
; 31
10149            8.800000   0.940000   0.000000   0.000000   0.000000  
; 30
10150            10.830000  1.300000   0.000000   0.000000   0.000000  
; 41
10151            14.120000  1.380000   0.000000   0.000000   0.000000  
; 29
10152            17.590000  2.290000   0.000000   0.000000   0.000000  
; 27
10153            15.060000  0.940000   0.000000   0.000000   0.000000  
; 38
10154            7.260000   0.940000   0.000000   0.000000   0.000000  
; 39
10155            11.050000  1.240000   0.000000   0.000000   0.000000  
; 18
10156            2.535000   2.662000   0.000000   0.000000   0.000000  
; 17
10157            3.020000   2.731000   0.000000   0.000000   0.000000  
; 16
10158            3.514000   2.495000   0.000000   0.000000   0.000000  
; 15
10159            9.770000   1.620000   0.000000   0.000000   0.000000  
; 14
10160            13.950000  1.590000   0.000000   0.000000   0.000000  
; 13
10161            5.320000   1.850000   0.000000   0.000000   0.000000  
; 12
10162            8.710000   1.050000   0.000000   0.000000   0.000000  
; 11
10163            10.250000  3.090000   0.000000   0.000000   0.000000  
; 10
10164            19.930000  1.600000   0.000000   0.000000   0.000000  
; 9
10165            10.890000  0.740000   0.000000   0.000000   0.000000  
; 8
10166            12.100000  0.870000   0.000000   0.000000   0.000000  
; 7
10167            14.350000  1.110000   0.000000   0.000000   0.000000  
; 6
10168            19.830000  1.100000   0.000000   0.000000   0.000000  
; 5
10169            13.730000  1.010000   0.000000   0.000000   0.000000  
; 2
10170            18.750000  1.170000   0.000000   0.000000   0.000000  
; 1A
10171            20.970000  1.030000   0.000000   0.000000   0.000000  
; 21
10172            23.390000  1.610000   0.000000   0.000000   0.000000  
; UKN
10173            29.020000  0.790000   0.000000   0.000000   0.000000  
; 25
10174            16.480000  1.200000   0.000000   0.000000   0.000000  
; 24
10175            20.600000  1.520000   0.000000   0.000000   0.000000  
; 23
10176            29.800000  0.960000   0.000000   0.000000   0.000000  
; 22/A
10177            31.390000  1.720000   0.000000   0.000000   0.000000  
; 2/1
10178            16.640000  1.860000   0.000000   0.000000   0.000000  
; 4/1
10179            17.000000  1.000000   0.000000   0.000000   0.000000  
; 5/1
10180            22.820000  1.180000   0.000000   0.000000   0.000000  
; 6/1
10181            22.930000  2.570000   0.000000   0.000000   0.000000  
; 7/1
10182            23.270000  1.730000   0.000000   0.000000   0.000000  
; 8/1
10183            23.510000  2.120000   0.000000   0.000000   0.000000  
; AZ/9
10184            21.700000  1.900000   0.000000   0.000000   0.000000  
; AZ/8
10185            21.480000  1.850000   0.000000   0.000000   0.000000  
; BZ/1
10186            31.320000  2.190000   0.000000   0.000000   0.000000  
; AZ/7
10187            21.160000  1.610000   0.000000   0.000000   0.000000  
; AZ/6
10188            20.750000  1.330000   0.000000   0.000000   0.000000  
; AZ/5
10189            20.340000  3.090000   0.000000   0.000000   0.000000  
; AZ/4
10190            19.840000  1.890000   0.000000   0.000000   0.000000  
; AZ/3
10191            19.450000  1.970000   0.000000   0.000000   0.000000  
; A/21
10192            16.750000  2.230000   0.000000   0.000000   0.000000  
; A/22A
10193            17.860000  1.500000   0.000000   0.000000   0.000000  
; AZ/1
10194            18.930000  2.560000   0.000000   0.000000   0.000000  
; AZ/2
10195            19.110000  2.530000   0.000000   0.000000   0.000000  
; A/25
10196            36.740000  1.630000   0.000000   0.000000   0.000000  
; A/23
10197            30.560000  1.680000   0.000000   0.000000   0.000000  
; A/24
10198            33.920000  1.790000   0.000000   0.000000   0.000000  
; AB/1
10199            14.518000  1.618000   0.000000   0.000000   0.000000  
; AB/2
10200            15.347000  1.051000   0.000000   0.000000   0.000000  
; AB/3
10201            16.965000  1.668000   0.000000   0.000000   0.000000  
; AB/4
10202            17.188000  1.509000   0.000000   0.000000   0.000000  
; AB/5
10203            17.980000  2.744000   0.000000   0.000000   0.000000  
; YA/3
10204            4.828000   1.098000   0.000000   0.000000   0.000000  
; 1/1
10205            12.400000  1.100000   0.000000   0.000000   0.000000  
; 2/1
10206            13.090000  0.540000   0.000000   0.000000   0.000000  
; YA/5
10207            17.234000  1.356000   0.000000   0.000000   0.000000  
; A/51
10208            14.640000  1.480000   0.000000   0.000000   0.000000  
; A/47
10209            14.011000  3.580000   0.000000   0.000000   0.000000  
; A/49
10210            14.200000  3.050000   0.000000   0.000000   0.000000  
; A/48
10211            14.146000  3.062000   0.000000   0.000000   0.000000  
; AV/1
10212            16.648000  1.500000   0.000000   0.000000   0.000000  
; GK/2
10213            17.332000  1.500000   0.000000   0.000000   0.000000  
; DF/7
10214            24.602000  1.330000   0.000000   0.000000   0.000000  
; DF/6
10215            20.585000  2.050000   0.000000   0.000000   0.000000  
; DF/5
10216            18.593000  1.400000   0.000000   0.000000   0.000000  
; DF/4
10217            15.575000  1.531000   0.000000   0.000000   0.000000  
; GM/1
10218            19.100000  0.900000   0.000000   0.000000   0.000000  
; DF/3
10219            9.965000   2.150000   0.000000   0.000000   0.000000  
; GK/1
10220            10.886000  1.346000   0.000000   0.000000   0.000000  
; DF/2
10221            4.438000   1.670000   0.000000   0.000000   0.000000  
; DA/3
10222            3.547000   2.760000   0.000000   0.000000   0.000000  
; DA/1
10223            1.400000   3.010000   0.000000   0.000000   0.000000  
; DA/2
10224            1.596000   2.008000   0.000000   0.000000   0.000000  
; DC/1
10225            6.543000   1.107000   0.000000   0.000000   0.000000  
; BY/18
10226            3.034000   2.670000   0.000000   0.000000   0.000000  
; BY/17
10227            2.586000   2.085000   0.000000   0.000000   0.000000  
; DT/5A
10229            3.020000   1.220000   0.000000   0.000000   0.000000  
; DT/5
10230            2.870000   1.860000   0.000000   0.000000   0.000000  
; DT/4
10231            2.540000   1.630000   0.000000   0.000000   0.000000  
; DT/3
10232            2.250000   1.230000   0.000000   0.000000   0.000000  
; XH/1
10233            2.950000   2.480000   0.000000   0.000000   0.000000  
; BU/6
10234            16.930000  5.070000   0.000000   0.000000   0.000000  
; BU/5
10235            12.000000  5.000000   0.000000   0.000000   0.000000  
; BU/4
10236            9.700000   2.500000   0.000000   0.000000   0.000000  
; BY/2
10237            -0.877000  3.589000   0.000000   0.000000   0.000000  
; VJ/4
10238            1.870000   3.350000   0.000000   0.000000   0.000000  
; VJ/3
10239            1.130000   4.190000   0.000000   0.000000   0.000000  
; VJ/5
10240            2.960000   1.200000   0.000000   0.000000   0.000000  
; A/1
10242            5.920000   1.265000   0.000000   0.000000   0.000000  
; GHJ/1
10243            4.099000   1.200000   0.000000   0.000000   0.000000  
; GHJ/2
10244            6.200000   1.200000   0.000000   0.000000   0.000000  
; GHJ/3
10245            6.400000   1.200000   0.000000   0.000000   0.000000  
; GHG/3
10246            3.972000   1.280000   0.000000   0.000000   0.000000  
; GHG/4
10247            10.751000  1.020000   0.000000   0.000000   0.000000  
; GHG/5
10248            12.130000  1.370000   0.000000   0.000000   0.000000  
; GHN/1
10249            4.057000   1.200000   0.000000   0.000000   0.000000  
; GHG/2
10251            2.106000   1.460000   0.000000   0.000000   0.000000  
; GHG/1
10252            1.761000   1.878000   0.000000   0.000000   0.000000  
; DX/28
10253            3.175000   2.435000   0.000000   0.000000   0.000000  
; GHA/1
10254            4.792000   0.970000   0.000000   0.000000   0.000000  
; GHA/2
10255            6.016000   0.630000   0.000000   0.000000   0.000000  
; GHO/2
10256            16.816000  1.090000   0.000000   0.000000   0.000000  
; GHO/1
10257            14.111000  1.580000   0.000000   0.000000   0.000000  
; GHC/7
10258            12.136000  2.000000   0.000000   0.000000   0.000000  
; GHC/8
10259            20.231000  1.200000   0.000000   0.000000   0.000000  
; GHC/9
10260            20.337000  0.750000   0.000000   0.000000   0.000000  
; GHM/1
10262            13.510000  1.200000   0.000000   0.000000   0.000000  
; GHM/2
10263            15.139000  1.200000   0.000000   0.000000   0.000000  
; GHC/6
10265            11.797000  1.800000   0.000000   0.000000   0.000000  
; A/33
10266            10.111000  1.760000   0.000000   0.000000   0.000000  
; DM/1
10268            3.750000   1.670000   0.000000   0.000000   0.000000  
; DN/1
10269            5.920000   1.200000   0.000000   0.000000   0.000000  
; DH/1
10270            -0.790000  3.570000   0.000000   0.000000   0.000000  
; J/11
10271            11.140000  1.800000   0.000000   0.000000   0.000000  
; J/12
10272            12.390000  1.800000   0.000000   0.000000   0.000000  
; BA/2
10273            2.569000   1.411000   0.000000   0.000000   0.000000  
; BA/1
10274            1.890000   1.730000   0.000000   0.000000   0.000000  
; BP/1
10275            -0.224000  3.130000   0.000000   0.000000   0.000000  
; BR/1
10276            1.461000   2.565000   0.000000   0.000000   0.000000  
; BR/2
10277            2.996000   1.620000   0.000000   0.000000   0.000000  
; BR/3
10278            6.000000   1.200000   0.000000   0.000000   0.000000  
; AZ/5
10279            -0.866000  3.800000   0.000000   0.000000   0.000000  
; SJ/1
10280            1.640000   0.920000   0.000000   0.000000   0.000000  
; SJ/2
10281            1.900000   0.720000   0.000000   0.000000   0.000000  
; A2
10282            20.030000  1.715000   0.000000   0.000000   0.000000  
; A1
10283            19.245000  2.100000   0.000000   0.000000   0.000000  
; C1
10284            20.120000  2.305000   0.000000   0.000000   0.000000  
; C2
10285            22.600000  2.310000   0.000000   0.000000   0.000000  
; A3
10286            24.520000  1.525000   0.000000   0.000000   0.000000  
; C/4
10287            0.920000   0.670000   0.000000   0.000000   0.000000  
; C/5
10288            1.140000   0.550000   0.000000   0.000000   0.000000  
; C/6
10289            1.330000   0.650000   0.000000   0.000000   0.000000  
; A/21
10290            7.771000   1.759000   0.000000   0.000000   0.000000  
; B/3
10291            1.530000   0.850000   0.000000   0.000000   0.000000  
; B/2
10292            1.200000   1.620000   0.000000   0.000000   0.000000  
; B/1
10293            0.490000   1.800000   0.000000   0.000000   0.000000  
; BP/2
10294            0.334000   2.320000   0.000000   0.000000   0.000000  
; BP/3
10295            0.795000   1.920000   0.000000   0.000000   0.000000  
; BP/4
10296            1.511000   1.670000   0.000000   0.000000   0.000000  
; BU/1
10297            3.014000   1.250000   0.000000   0.000000   0.000000  
; BP/5
10298            2.447000   1.280000   0.000000   0.000000   0.000000  
; BT/1
10299            1.728000   1.090000   0.000000   0.000000   0.000000  
; K/3
10300            8.525000   1.110000   0.000000   0.000000   0.000000  
; K/1
10301            7.855000   3.620000   0.000000   0.000000   0.000000  
; J/8
10302            8.180000   3.370000   0.000000   0.000000   0.000000  
; J/8A
10303            11.940000  1.230000   0.000000   0.000000   0.000000  
; J/9
10304            8.390000   1.210000   0.000000   0.000000   0.000000  
; J/10
10305            8.593000   1.557000   0.000000   0.000000   0.000000  
; R/1
10306            9.420000   1.170000   0.000000   0.000000   0.000000  
; R/2
10307            15.760000  1.600000   0.000000   0.000000   0.000000  
; FU/1
10308            17.670000  1.200000   0.000000   0.000000   0.000000  
; R/3
10309            16.780000  1.500000   0.000000   0.000000   0.000000  
; S/1
10310            11.555000  1.805000   0.000000   0.000000   0.000000  
; S/2
10311            14.291000  1.770000   0.000000   0.000000   0.000000  
; VC/3
10312            4.765000   1.865000   0.000000   0.000000   0.000000  
; VC/4
10313            5.080000   1.180000   0.000000   0.000000   0.000000  
; VC/2
10314            3.410000   1.190000   0.000000   0.000000   0.000000  
; J/4
10315            7.380729   5.099271   0.000000   0.000000   0.000000  
; J/3
10316            7.277000   2.873000   0.000000   0.000000   0.000000  
; J/2
10317            7.170000   3.710000   0.000000   0.000000   0.000000  
; E/3
10318            11.900000  3.000000   0.000000   0.000000   0.000000  
; F/1
10319            14.000000  1.200000   0.000000   0.000000   0.000000  
; E/4
10320            12.200000  1.200000   0.000000   0.000000   0.000000  
; E/5
10321            12.850000  1.200000   0.000000   0.000000   0.000000  
; E/2
10322            8.100000   1.200000   0.000000   0.000000   0.000000  
; BZ/9
10323            4.571000   1.450000   0.000000   0.000000   0.000000  
; BZ/8
10324            2.289000   1.410000   0.000000   0.000000   0.000000  
; BZ/7
10325            1.336000   1.950000   0.000000   0.000000   0.000000  
; BZ/6
10326            1.270000   1.929000   0.000000   0.000000   0.000000  
; BZ/5
10327            0.497000   1.710000   0.000000   0.000000   0.000000  
; BZ/4A
10328            0.148000   2.050000   0.000000   0.000000   0.000000  
; BZ/4
10329            -0.100000  2.459000   0.000000   0.000000   0.000000  
; CB/1
10330            2.500000   0.900000   0.000000   0.000000   0.000000  
; BZ/3
10331            -0.461000  4.019000   0.000000   0.000000   0.000000  
; BZ/2
10332            -0.684000  3.909000   0.000000   0.000000   0.000000  
; BZ/1
10333            -1.010000  4.110000   0.000000   0.000000   0.000000  
; BY/1
10334            -1.595000  5.070000   0.000000   0.000000   0.000000  
; A/12
10335            6.580000   7.892000   0.000000   0.000000   0.000000  
; A/13
10336            6.630000   6.607000   0.000000   0.000000   0.000000  
; J/1
10337            6.965000   1.275000   0.000000   0.000000   0.000000  
; CC/2
10338            3.756000   1.230000   0.000000   0.000000   0.000000  
; CC/1
10339            3.301000   1.110000   0.000000   0.000000   0.000000  
; G/1
10340            16.200000  3.600000   0.000000   0.000000   0.000000  
; G/2
10341            20.250000  1.750000   0.000000   0.000000   0.000000  
; G/3
10342            21.000000  1.500000   0.000000   0.000000   0.000000  
; A/11
10343            6.535000   6.545000   0.000000   0.000000   0.000000  
; E/1
10344            7.335000   1.250000   0.000000   0.000000   0.000000  
; A/10
10345            6.400000   4.950000   0.000000   0.000000   0.000000  
; C/1
10346            12.452000  1.200000   0.000000   0.000000   0.000000  
; C/2
10347            16.500000  2.000000   0.000000   0.000000   0.000000  
; A/9
10348            6.380000   3.954000   0.000000   0.000000   0.000000  
; A/8
10349            6.300000   3.253000   0.000000   0.000000   0.000000  
; VL/1
10350            2.719000   1.900000   0.000000   0.000000   0.000000  
; ZH/7
10351            12.150000  1.800000   0.000000   0.000000   0.000000  
; ZX/5
10352            10.900000  1.800000   0.000000   0.000000   0.000000  
; ZX/6
10353            11.250000  1.800000   0.000000   0.000000   0.000000  
; A/14
10354            6.880000   1.320000   0.000000   0.000000   0.000000  
; A/15
10355            7.090000   3.030000   0.000000   0.000000   0.000000  
; AB/1
10356            10.830000  2.370000   0.000000   0.000000   0.000000  
; AB/2
10357            13.000000  2.000000   0.000000   0.000000   0.000000  
; AB/3
10358            13.250000  2.000000   0.000000   0.000000   0.000000  
; A/16
10359            7.120000   1.518000   0.000000   0.000000   0.000000  
; A/17
10360            7.150000   2.950000   0.000000   0.000000   0.000000  
; A/18
10361            7.350000   2.050000   0.000000   0.000000   0.000000  
; A/19
10362            7.535000   4.185000   0.000000   0.000000   0.000000  
; A/20
10363            7.604000   1.576000   0.000000   0.000000   0.000000  
; ZX/2
10364            7.300000   1.800000   0.000000   0.000000   0.000000  
; ZX/1A
10365            7.100000   1.200000   0.000000   0.000000   0.000000  
; ZX/1
10366            6.800000   1.800000   0.000000   0.000000   0.000000  
; A/2
10367            5.988000   1.376000   0.000000   0.000000   0.000000  
; A/3
10368            6.097000   2.525000   0.000000   0.000000   0.000000  
; A/4
10369            6.056000   2.539000   0.000000   0.000000   0.000000  
; A/5
10370            6.140000   6.841000   0.000000   0.000000   0.000000  
; A/6
10371            6.200000   3.790000   0.000000   0.000000   0.000000  
; A/7