[TITLE]
;;Project Title/Notes

[OPTIONS]
;;Option             Value
FLOW_UNITS           CMS
INFILTRATION         GREEN_AMPT
FLOW_ROUTING         DYNWAVE
LINK_OFFSETS         DEPTH
MIN_SLOPE            0
ALLOW_PONDING        NO
SKIP_STEADY_STATE    NO

START_DATE           12/19/2017
START_TIME           15:45:00
REPORT_START_DATE    12/19/2017
REPORT_START_TIME    15:45:00
END_DATE             12/19/2017
END_TIME             16:00:00
SWEEP_START          01/01
SWEEP_END            12/31
DRY_DAYS             0
REPORT_STEP          00:00:01
WET_STEP             15:05:00
DRY_STEP             15:05:00
ROUTING_STEP         0:00:01 

INERTIAL_DAMPING     NONE
NORMAL_FLOW_LIMITED  BOTH
FORCE_MAIN_EQUATION  H-W
VARIABLE_STEP        0.00
LENGTHENING_STEP     1
MIN_SURFAREA         1
MAX_TRIALS           8
HEAD_TOLERANCE       0.0015
SYS_FLOW_TOL         5
LAT_FLOW_TOL         5
MINIMUM_STEP         0.5
THREADS              1

[EVAPORATION]
;;Data Source    Parameters
;;-------------- ----------------
CONSTANT         0
DRY_ONLY         NO

[JUNCTIONS]
;;Name           Elevation  MaxDepth   InitDepth  SurDepth   Aponded   
;;-------------- ---------- ---------- ---------- ---------- ----------
DN01             101.3883759 1.568182352 0          0          0         
DN02             101.3467517 1.566364703 0          0          0         
DN03             101.3051276 1.564547055 0          0          0         
DN04             101.2635034 1.562729407 0          0          0         
DN05             101.2218793 1.560911758 0          0          0         
DN06             101.1802551 1.55909411 0          0          0         
DN07             101.138631 1.557276461 0          0          0         
DN08             101.0970068 1.555458813 0          0          0         
DN09             101.0553827 1.553641165 0          0          0         
DN10             101.0137585 1.551823516 0          0          0         
DN20             101.0074404 1.111028309 0          0          0         
DN19             101.0048807 1.156925478 0          0          0         
DN18             101.0023211 1.202822647 0          0          0         
DN17             100.9997614 1.248719816 0          0          0         
DN16             100.9972018 1.294616985 0          0          0         
DN15             100.9946421 1.340514154 0          0          0         
DN14             100.9920825 1.386411324 0          0          0         
DN13             100.9895228 1.432308493 0          0          0         
DN12             100.9869632 1.478205662 0          0          0         
DN11             100.9844035 1.524102831 0          0          0         
DN21             100.8627707 1.582777819 0          0          0         
DN22             100.7535413 1.595500037 0          0          0         
DN23             100.644312 1.608222255 0          0          0         
DN24             100.5350827 1.620944473 0          0          0         
DN25             100.4258533 1.633666691 0          0          0         
DN26             100.316624 1.646388909 0          0          0         
DN27             100.2073947 1.659111128 0          0          0         
DN28             100.0981654 1.671833346 0          0          0         
DN29             99.98893603 1.684555564 0          0          0         
DN30             99.8797067 1.697277782 0          0          0         
DN31             99.97004526 1.383467829 0          0          0         
DN32             99.95009051 1.416121046 0          0          0         
DN33             99.93013577 1.448774263 0          0          0         
DN34             99.91018103 1.48142748 0          0          0         
DN35             99.89022628 1.514080697 0          0          0         
DN36             99.87027154 1.546733914 0          0          0         
DN37             99.8503168 1.579387132 0          0          0         
DN38             99.83036205 1.612040349 0          0          0         
DN39             99.81040731 1.644693566 0          0          0         
DN40             99.79045257 1.677346783 0          0          0         
DN41             99.76518515 1.713678466 0          0          0         
DN42             99.7603703 1.715310619 0          0          0         
DN43             99.75555544 1.716942773 0          0          0         
DN44             99.75074059 1.718574926 0          0          0         
DN45             99.74592574 1.720207079 0          0          0         
DN46             99.74111089 1.721839233 0          0          0         
DN47             99.73629603 1.723471386 0          0          0         
DN48             99.73148118 1.72510354 0          0          0         
DN49             99.72666633 1.726735693 0          0          0         
DN50             99.72185148 1.728367847 0          0          0         
DN51             99.73560699 1.709513299 0          0          0         
DN52             99.76064629 1.689026597 0          0          0         
DN53             99.78568559 1.668539896 0          0          0         
DN54             99.81072489 1.648053194 0          0          0         
DN55             99.83576419 1.627566493 0          0          0         
DN56             99.86080349 1.607079791 0          0          0         
DN57             99.8858428 1.58659309 0          0          0         
DN58             99.9108821 1.566106389 0          0          0         
DN59             99.9359214 1.545619687 0          0          0         
DN60             99.9609607 1.525132986 0          0          0         
DN61             99.65558484 1.731831095 0          0          0         
DN62             99.60016968 1.733647986 0          0          0         
DN63             99.54475452 1.735464876 0          0          0         
DN64             99.48933936 1.737281767 0          0          0         
DN65             99.4339242 1.739098657 0          0          0         
DN66             99.37850904 1.740915548 0          0          0         
DN67             99.32309389 1.742732438 0          0          0         
DN68             99.26767873 1.744549329 0          0          0         
DN69             99.21226357 1.746366219 0          0          0         
DN70             99.15684841 1.74818311 0          0          0         
DN71             99.35736281 1.545447982 0          0          0         
DN72             99.33172563 1.565903184 0          0          0         
DN73             99.30608844 1.586358386 0          0          0         
DN74             99.28045125 1.606813588 0          0          0         
DN75             99.25481407 1.627268789 0          0          0         
DN76             99.22917688 1.647723991 0          0          0         
DN77             99.20353969 1.668179193 0          0          0         
DN78             99.17790251 1.688634395 0          0          0         
DN79             99.15226532 1.709089596 0          0          0         
DN80             99.12662813 1.729544798 0          0          0         
DN81             99.04606436 1.742723756 0          0          0         
DN82             98.99112872 1.735447513 0          0          0         
DN83             98.93619308 1.728171269 0          0          0         
DN84             98.88125744 1.720895025 0          0          0         
DN85             98.8263218 1.713618782 0          0          0         
DN86             98.77138616 1.706342538 0          0          0         
DN87             98.71645052 1.699066294 0          0          0         
DN88             98.66151488 1.691790051 0          0          0         
DN89             98.60657924 1.684513807 0          0          0         
DN90             98.5516436 1.677237563 0          0          0         
DN91             98.8904545 1.4565743  0          0          0         
DN92             98.852909  1.47791687 0          0          0         
DN93             98.8153635 1.49925944 0          0          0         
DN94             98.777818  1.52060201 0          0          0         
DN95             98.7402725 1.54194458 0          0          0         
DN96             98.70272699 1.56328715 0          0          0         
DN97             98.66518149 1.58462972 0          0          0         
DN98             98.62763599 1.60597229 0          0          0         
DN99             98.59009049 1.62731486 0          0          0         
DN100            98.55254499 1.64865743 0          0          0         
DN101            98.42471344 1.609155779 0          0          0         
DN102            98.35242687 1.548311559 0          0          0         
DN103            98.28014031 1.487467338 0          0          0         
DN104            98.20785374 1.426623117 0          0          0         
DN105            98.13556718 1.365778897 0          0          0         
DN106            98.06328061 1.304934676 0          0          0         
DN107            97.99099405 1.244090455 0          0          0         
DN108            97.91870748 1.183246235 0          0          0         
DN109            97.84642092 1.122402014 0          0          0         
DN110            97.77413435 1.061557793 0          0          0         
DN120            99.32781123 1.018545441 0          0          0         
DN119            99.28762247 1.059190897 0          0          0         
DN118            99.2474337 1.099836353 0          0          0         
DN117            99.20724494 1.140481808 0          0          0         
DN116            99.16705617 1.181127264 0          0          0         
DN115            99.12686741 1.22177272 0          0          0         
DN114            99.08667864 1.262418176 0          0          0         
DN113            99.04648988 1.303063632 0          0          0         
DN112            99.00630111 1.343709088 0          0          0         
DN111            98.96611234 1.384354544 0          0          0         
DN130            100.3025219 1.089088156 0          0          0         
DN129            100.2090437 1.078176312 0          0          0         
DN128            100.1155656 1.067264467 0          0          0         
DN127            100.0220875 1.056352623 0          0          0         
DN126            99.92860935 1.045440779 0          0          0         
DN125            99.83513122 1.034528935 0          0          0         
DN124            99.74165309 1.023617091 0          0          0         
DN123            99.64817496 1.012705247 0          0          0         
DN122            99.55469683 1.001793402 0          0          0         
DN121            99.46121869 0.990881558 0          0          0         
DN131            100.3199352 1.172739239 0          0          0         
DN132            100.2438704 1.242465315 0          0          0         
DN133            100.1678056 1.312191391 0          0          0         
DN134            100.0917408 1.381917467 0          0          0         
DN135            100.0156759 1.451643543 0          0          0         
DN136            99.93961114 1.521369619 0          0          0         
DN137            99.86354633 1.591095695 0          0          0         
DN138            99.78748151 1.660821772 0          0          0         
DN139            99.7114167 1.730547848 0          0          0         
DN140            99.63535189 1.800273924 0          0          0         
DN150            100.5160086 1.645493513 0          0          0         
DN149            100.5040171 1.590987026 0          0          0         
DN148            100.4920257 1.536480539 0          0          0         
DN147            100.4800343 1.481974052 0          0          0         
DN146            100.4680429 1.427467565 0          0          0         
DN145            100.4560514 1.372961078 0          0          0         
DN144            100.44406  1.318454591 0          0          0         
DN143            100.4320686 1.263948104 0          0          0         
DN142            100.4200771 1.209441617 0          0          0         
DN141            100.4080857 1.15493513 0          0          0         
DN160            100.9379609 1.263220383 0          0          0         
DN159            100.8969218 1.306898345 0          0          0         
DN158            100.8558827 1.350576306 0          0          0         
DN157            100.8148437 1.394254268 0          0          0         
DN156            100.7738046 1.43793223 0          0          0         
DN155            100.7327655 1.481610192 0          0          0         
DN154            100.6917264 1.525288153 0          0          0         
DN153            100.6506873 1.568966115 0          0          0         
DN152            100.6096482 1.612644077 0          0          0         
DN151            100.5686092 1.656322038 0          0          0         
DN170            101.5402724 1.364628119 0          0          0         
DN169            101.4905448 1.369165307 0          0          0         
DN168            101.4408173 1.373702495 0          0          0         
DN167            101.3910897 1.378239684 0          0          0         
DN166            101.3413621 1.382776872 0          0          0         
DN165            101.2916345 1.38731406 0          0          0         
DN164            101.2419069 1.391851248 0          0          0         
DN163            101.1921794 1.396388436 0          0          0         
DN162            101.1424518 1.400925624 0          0          0         
DN161            101.0927242 1.405462812 0          0          0         
DN180            101.3358173 1.111848924 0          0          0         
DN179            101.3066347 1.141664031 0          0          0         
DN178            101.277452 1.171479139 0          0          0         
DN177            101.2482693 1.201294247 0          0          0         
DN176            101.2190867 1.231109354 0          0          0         
DN175            101.189904 1.260924462 0          0          0         
DN174            101.1607213 1.29073957 0          0          0         
DN173            101.1315387 1.320554677 0          0          0         
DN172            101.102356 1.350369785 0          0          0         
DN171            101.0731733 1.380184892 0          0          0         
DN190            100.9982902 1.428182544 0          0          0         
DN189            100.9545804 1.426365088 0          0          0         
DN188            100.9108706 1.424547632 0          0          0         
DN187            100.8671607 1.422730176 0          0          0         
DN186            100.8234509 1.42091272 0          0          0         
DN185            100.7797411 1.419095264 0          0          0         
DN184            100.7360313 1.417277808 0          0          0         
DN183            100.6923215 1.415460352 0          0          0         
DN182            100.6486117 1.413642897 0          0          0         
DN181            100.6049018 1.411825441 0          0          0         
DN200            100.8308581 1.064455769 0          0          0         
DN199            100.8037162 1.101010192 0          0          0         
DN198            100.7765743 1.137564615 0          0          0         
DN197            100.7494324 1.174119038 0          0          0         
DN196            100.7222905 1.210673461 0          0          0         
DN195            100.6951486 1.247227885 0          0          0         
DN194            100.6680067 1.283782308 0          0          0         
DN193            100.6408648 1.320336731 0          0          0         
DN192            100.613723 1.356891154 0          0          0         
DN191            100.5865811 1.393445577 0          0          0         
DN210            100.5091445 1.422734788 0          0          0         
DN209            100.4572891 1.415469575 0          0          0         
DN208            100.4054336 1.408204363 0          0          0         
DN207            100.3535782 1.40093915 0          0          0         
DN206            100.3017227 1.393673938 0          0          0         
DN205            100.2498673 1.386408725 0          0          0         
DN204            100.1980118 1.379143513 0          0          0         
DN203            100.1461564 1.371878301 0          0          0         
DN202            100.0943009 1.364613088 0          0          0         
DN201            100.0424455 1.357347876 0          0          0         
PV02             101.43     1.55       0          0          0         
PVE1             101.001    1.05       0          0          0         
PV03             100.972    1.57       0          0          0         
PVE2             99.99      1.35       0          0          0         
PV04             99.77      1.71       0          0          0         
PV05             99.711     1.73       0          0          0         
PVE3             99.986     1.505      0          0          0         
PV06             99.101     1.75       0          0          0         
PVE4             99.383     1.525      0          0          0         
PVE5             98.928     1.425      0          0          0         
PV07             98.497     1.67       0          0          0         
PVE6             99.368     0.98       0          0          0         
PVE7             100.396    1.1        0          0          0         
PVE8             99.556     1.87       0          0          0         
PVE9             100.528    1.7        0          0          0         
PVE10            100.979    1.22       0          0          0         
PVE11            100.561    1.43       0          0          0         
PVE12            100.858    1.03       0          0          0         
PVE13            101.365    1.08       0          0          0         
PVE14            101.042    1.41       0          0          0         
PVE15            101.59     1.36       0          0          0         

[OUTFALLS]
;;Name           Elevation  Type       Stage Data       Gated    Route To        
;;-------------- ---------- ---------- ---------------- -------- ----------------
O_1              97.701     FREE                        NO                       

[CONDUITS]
;;Name           From Node        To Node          Length     Roughness  InOffset   OutOffset  InitFlow   MaxFlow   
;;-------------- ---------------- ---------------- ---------- ---------- ---------- ---------- ---------- ----------
C_1              PV02             DN01             2.54       0.015      0          0          0          0         
C_2              DN01             DN02             2.54       0.015      0          0          0          0         
C_3              DN02             DN03             2.54       0.015      0          0          0          0         
C_4              DN03             DN04             2.54       0.015      0          0          0          0         
C_5              DN04             DN05             2.54       0.015      0          0          0          0         
C_6              DN05             DN06             2.54       0.015      0          0          0          0         
C_7              DN06             DN07             2.54       0.015      0          0          0          0         
C_8              DN07             DN08             2.54       0.015      0          0          0          0         
C_9              DN08             DN09             2.54       0.015      0          0          0          0         
C_10             DN09             DN10             2.54       0.015      0          0          0          0         
C_11             DN10             PV03             2.54       0.015      0          0          0          0         
C_12             PV03             DN21             4.05       0.015      0          0          0          0         
C_13             DN21             DN22             4.05       0.015      0          0          0          0         
C_14             DN22             DN23             4.05       0.015      0          0          0          0         
C_15             DN23             DN24             4.05       0.015      0          0          0          0         
C_16             DN24             DN25             4.05       0.015      0          0          0          0         
C_17             DN25             DN26             4.05       0.015      0          0          0          0         
C_18             DN26             DN27             4.05       0.015      0          0          0          0         
C_19             DN27             DN28             4.05       0.015      0          0          0          0         
C_20             DN28             DN29             4.05       0.015      0          0          0          0         
C_21             DN29             DN30             4.05       0.015      0          0          0          0         
C_22             DN30             PV04             4.05       0.015      0          0          0          0         
C_23             PV04             DN41             0.32       0.015      0          0          0          0         
C_24             DN41             DN42             0.32       0.015      0          0          0          0         
C_25             DN42             DN43             0.32       0.015      0          0          0          0         
C_26             DN43             DN44             0.32       0.015      0          0          0          0         
C_27             DN44             DN45             0.32       0.015      0          0          0          0         
C_28             DN45             DN46             0.32       0.015      0          0          0          0         
C_29             DN46             DN47             0.32       0.015      0          0          0          0         
C_30             DN47             DN48             0.32       0.015      0          0          0          0         
C_31             DN48             DN49             0.32       0.015      0          0          0          0         
C_32             DN49             DN50             0.32       0.015      0          0          0          0         
C_33             DN50             PV05             0.32       0.015      0          0          0          0         
C_34             PV05             DN61             2.75       0.015      0          0          0          0         
C_35             DN61             DN62             2.75       0.015      0          0          0          0         
C_36             DN62             DN63             2.75       0.015      0          0          0          0         
C_37             DN63             DN64             2.75       0.015      0          0          0          0         
C_38             DN64             DN65             2.75       0.015      0          0          0          0         
C_39             DN65             DN66             2.75       0.015      0          0          0          0         
C_40             DN66             DN67             2.75       0.015      0          0          0          0         
C_41             DN67             DN68             2.75       0.015      0          0          0          0         
C_42             DN68             DN69             2.75       0.015      0          0          0          0         
C_43             DN69             DN70             2.75       0.015      0          0          0          0         
C_44             DN70             PV06             2.75       0.015      0          0          0          0         
C_45             PV06             DN81             2.69       0.015      0          0          0          0         
C_46             DN81             DN82             2.69       0.015      0          0          0          0         
C_47             DN82             DN83             2.69       0.015      0          0          0          0         
C_48             DN83             DN84             2.69       0.015      0          0          0          0         
C_49             DN84             DN85             2.69       0.015      0          0          0          0         
C_50             DN85             DN86             2.69       0.015      0          0          0          0         
C_51             DN86             DN87             2.69       0.015      0          0          0          0         
C_52             DN87             DN88             2.69       0.015      0          0          0          0         
C_53             DN88             DN89             2.69       0.015      0          0          0          0         
C_54             DN89             DN90             2.69       0.015      0          0          0          0         
C_55             DN90             PV07             2.69       0.015      0          0          0          0         
C_56             PV07             DN101            4.63       0.015      0          0          0          0         
C_57             DN101            DN102            4.63       0.015      0          0          0          0         
C_58             DN102            DN103            4.63       0.015      0          0          0          0         
C_59             DN103            DN104            4.63       0.015      0          0          0          0         
C_60             DN104            DN105            4.63       0.015      0          0          0          0         
C_61             DN105            DN106            4.63       0.015      0          0          0          0         
C_62             DN106            DN107            4.63       0.015      0          0          0          0         
C_63             DN107            DN108            4.63       0.015      0          0          0          0         
C_64             DN108            DN109            4.63       0.015      0          0          0          0         
C_65             DN109            DN110            4.63       0.015      0          0          0          0         
C_66             DN110            O_1              4.63       0.015      0          0          0          0         
C_67             PV03             DN11             1.23       0.015      0          0          0          0         
C_68             DN11             DN12             1.23       0.015      0          0          0          0         
C_69             DN12             DN13             1.23       0.015      0          0          0          0         
C_70             DN13             DN14             1.23       0.015      0          0          0          0         
C_71             DN14             DN15             1.23       0.015      0          0          0          0         
C_72             DN15             DN16             1.23       0.015      0          0          0          0         
C_73             DN16             DN17             1.23       0.015      0          0          0          0         
C_74             DN17             DN18             1.23       0.015      0          0          0          0         
C_75             DN18             DN19             1.23       0.015      0          0          0          0         
C_76             DN19             DN20             1.23       0.015      0          0          0          0         
C_77             DN20             PVE1             1.23       0.015      0          0          0          0         
C_78             PVE2             DN31             0.95       0.015      0          0          0          0         
C_79             DN31             DN32             0.95       0.015      0          0          0          0         
C_80             DN32             DN33             0.95       0.015      0          0          0          0         
C_81             DN33             DN34             0.95       0.015      0          0          0          0         
C_82             DN34             DN35             0.95       0.015      0          0          0          0         
C_83             DN35             DN36             0.95       0.015      0          0          0          0         
C_84             DN36             DN37             0.95       0.015      0          0          0          0         
C_85             DN37             DN38             0.95       0.015      0          0          0          0         
C_86             DN38             DN39             0.95       0.015      0          0          0          0         
C_87             DN39             DN40             0.95       0.015      0          0          0          0         
C_88             DN40             PV04             0.95       0.015      0          0          0          0         
C_89             PV05             DN51             1.28       0.015      0          0          0          0         
C_90             DN51             DN52             1.28       0.015      0          0          0          0         
C_91             DN52             DN53             1.28       0.015      0          0          0          0         
C_92             DN53             DN54             1.28       0.015      0          0          0          0         
C_93             DN54             DN55             1.28       0.015      0          0          0          0         
C_94             DN55             DN56             1.28       0.015      0          0          0          0         
C_95             DN56             DN57             1.28       0.015      0          0          0          0         
C_96             DN57             DN58             1.28       0.015      0          0          0          0         