[TITLE]
;;Project Title/Notes

[OPTIONS]
;;Option             Value
FLOW_UNITS           GPM
INFILTRATION         HORTON
FLOW_ROUTING         DYNWAVE
LINK_OFFSETS         DEPTH
MIN_SLOPE            0
ALLOW_PONDING        NO
SKIP_STEADY_STATE    NO

START_DATE           01/01/2002
START_TIME           00:00:00
REPORT_START_DATE    01/01/2002
REPORT_START_TIME    00:00:00
END_DATE             01/01/2002
END_TIME             12:00:00
SWEEP_START          01/01
SWEEP_END            12/31
DRY_DAYS             5.000000
REPORT_STEP          00:05:00
WET_STEP             01:00:00
DRY_STEP             23:00:00
ROUTING_STEP         0:05:00 

INERTIAL_DAMPING     NONE
NORMAL_FLOW_LIMITED  BOTH
FORCE_MAIN_EQUATION  H-W
VARIABLE_STEP        0.75
LENGTHENING_STEP     0
MIN_SURFAREA         12.557
MAX_TRIALS           8
HEAD_TOLERANCE       0.005
SYS_FLOW_TOL         5
LAT_FLOW_TOL         5
MINIMUM_STEP         0.5
THREADS              1

[EVAPORATION]
;;Data Source    Parameters
;;-------------- ----------------
CONSTANT         0.0
DRY_ONLY         NO

[JUNCTIONS]
;;Name           Elevation  MaxDepth   InitDepth  SurDepth   Aponded   
;;-------------- ---------- ---------- ---------- ---------- ----------
; 00-0000
00-0000          0.000000   27.000000  0.000000   1000.000000 0.000000  
; 100-0001
100-0001         102.810000 23.030000  0.000000   1000.000000 0.000000  
; 100-0002
100-0002         103.740000 8.800000   0.000000   1000.000000 0.000000  
; 100-0003
100-0003         105.000000 20.840000  0.000000   1000.000000 0.000000  
; 100-0004
100-0004         134.440000 11.330000  0.000000   1000.000000 0.000000  
; 100-0005
100-0005         154.900000 12.020000  0.000000   1000.000000 0.000000  
; 100-0006
100-0006         105.740000 8.160000   0.000000   1000.000000 0.000000  
; 100-0007
100-0007         107.220000 8.300000   0.000000   1000.000000 0.000000  
; 100-0008
100-0008         108.440000 7.230000   0.000000   1000.000000 0.000000  
; 100-0009
100-0009         129.300000 11.240000  0.000000   1000.000000 0.000000  
; 100-0010
100-0010         135.400000 11.250000  0.000000   1000.000000 0.000000  
; 100-0011
100-0011         138.830000 11.100000  0.000000   1000.000000 0.000000  
; 100-0012
100-0012         157.830000 10.540000  0.000000   1000.000000 0.000000  
; Sheron Ln
1004             230.000000 10.000000  0.000000   1000.000000 0.000000  
; Sheron Ln
1006             225.000000 15.000000  0.000000   1000.000000 0.000000  
; Sheron Ln
1008             220.000000 10.000000  0.000000   1000.000000 0.000000  
; 101-0001
101-0001         302.610000 9.190000   0.000000   1000.000000 0.000000  
; 101-0002
101-0002         293.000000 17.000000  0.000000   1000.000000 0.000000  
; 101-0003
101-0003         277.180000 10.820000  0.000000   1000.000000 0.000000  
; 101-0004
101-0004         275.130000 8.900000   0.000000   1000.000000 0.000000  
; 101-0005
101-0005         277.270000 14.160000  0.000000   1000.000000 0.000000  
; 101-0007
101-0007         279.200000 14.780000  0.000000   1000.000000 0.000000  
; 101-0008
101-0008         273.300000 15.480000  0.000000   1000.000000 0.000000  
; 101-0009
101-0009         265.060000 15.940000  0.000000   1000.000000 0.000000  
; 101-0010
101-0010         273.250000 8.590000   0.000000   1000.000000 0.000000  
; 101-0011
101-0011         275.840000 10.870000  0.000000   1000.000000 0.000000  
; 101-0012
101-0012         300.850000 10.780000  0.000000   1000.000000 0.000000  
; 101-0013
101-0013         292.570000 8.470000   0.000000   1000.000000 0.000000  
; 101-0014
101-0014         296.740000 7.260000   0.000000   1000.000000 0.000000  
; 101-0015
101-0015         251.450000 57.650000  0.000000   1000.000000 0.000000  
; 101-0016
101-0016         279.290000 14.920000  0.000000   1000.000000 0.000000  
; 101-0017
101-0017         284.650000 11.970000  0.000000   1000.000000 0.000000  
; 101-0018
101-0018         292.350000 7.380000   0.000000   1000.000000 0.000000  
; 101-0019
101-0019         300.000000 9.500000   0.000000   1000.000000 0.000000  
; 101-0020
101-0020         230.780000 74.450000  0.000000   1000.000000 0.000000  
; 101-0021
101-0021         251.350000 55.870000  0.000000   1000.000000 0.000000  
; Sheron Ln
1010             174.000000 6.000000   0.000000   1000.000000 0.000000  
; Country Ridge
1012             0.000000   0.000000   0.000000   0.000000   0.000000  
; Country Ridge
1014             245.000000 10.000000  0.000000   1000.000000 0.000000  
; Country Ridge
1016             240.000000 10.000000  0.000000   1000.000000 0.000000  
; Country Ridge
1018             220.000000 10.000000  0.000000   1000.000000 0.000000  
; Country Ridge
1020             174.000000 6.000000   0.000000   1000.000000 0.000000  
; A-37
1022             269.000000 16.000000  0.000000   1000.000000 0.000000  
; A-37
1024             264.000000 5.000000   0.000000   1000.000000 0.000000  
; A-37
1026             249.000000 15.000000  0.000000   1000.000000 0.000000  
; A-37
1028             246.000000 3.000000   0.000000   1000.000000 0.000000  
; A-37
1030             244.000000 2.000000   0.000000   1000.000000 0.000000  
; A-38
1032             257.910000 5.890000   0.000000   1000.000000 0.000000  
; A-38
1034             255.990000 4.010000   0.000000   1000.000000 0.000000  
; A-38
1036             253.940000 4.560000   0.000000   1000.000000 0.000000  
; A-38
1038             248.940000 4.560000   0.000000   1000.000000 0.000000  
; A-38
1040             246.240000 4.260000   0.000000   1000.000000 0.000000  
; A-38
1042             245.350000 4.150000   0.000000   1000.000000 0.000000  
; A-38
1044             241.000000 9.000000   0.000000   1000.000000 0.000000  
; A-38
1046             244.000000 5.000000   0.000000   1000.000000 0.000000  
; A-38
1048             231.840000 7.160000   0.000000   1000.000000 0.000000  
; A-38
1050             227.000000 8.000000   0.000000   1000.000000 0.000000  
; A-38
1052             221.000000 7.000000   0.000000   1000.000000 0.000000  
; A-38
1054             200.080000 12.920000  0.000000   1000.000000 0.000000  
; A-38
1056             196.190000 13.810000  0.000000   1000.000000 0.000000  
; A-38
1058             196.000000 7.000000   0.000000   1000.000000 0.000000  
; A-38
1060             186.000000 7.000000   0.000000   1000.000000 0.000000  
; A-38
1062             181.740000 8.260000   0.000000   1000.000000 0.000000  
; A-38
1064             177.640000 11.360000  0.000000   1000.000000 0.000000  
; A-38
1066             167.450000 7.550000   0.000000   1000.000000 0.000000  
; A-38
1068             157.000000 7.000000   0.000000   1000.000000 0.000000  
; A-38
1070             147.080000 9.920000   0.000000   1000.000000 0.000000  
; A-38
1072             134.640000 20.360000  0.000000   1000.000000 0.000000  
; A-38
1074             134.640000 10.860000  0.000000   1000.000000 0.000000  
; A-38
1076             134.100000 9.900000   0.000000   1000.000000 0.000000  
; A-38
1078             123.300000 5.200000   0.000000   1000.000000 0.000000  
; 108-0001
108-0001         204.000000 4.300000   0.000000   1000.000000 0.000000  
; 108-0002
108-0002         199.900000 8.400000   0.000000   1000.000000 0.000000  
; 108-0003
108-0003         188.000000 16.500000  0.000000   1000.000000 0.000000  
; 108-0004
108-0004         183.800000 7.900000   0.000000   1000.000000 0.000000  
; 108-0005
108-0005         175.000000 12.750000  0.000000   1000.000000 0.000000  
; 108-0006
108-0006         167.690000 13.810000  0.000000   1000.000000 0.000000  
; 108-0007
108-0007         166.760000 13.740000  0.000000   1000.000000 0.000000  
; 108-0008
108-0008         166.300000 10.700000  0.000000   1000.000000 0.000000  
; 108-0009
108-0009         165.280000 12.470000  0.000000   1000.000000 0.000000  
; 108-0010
108-0010         164.700000 16.410000  0.000000   1000.000000 0.000000  
; 108-0011
108-0011         162.050000 8.950000   0.000000   1000.000000 0.000000  
; 108-0012
108-0012         151.000000 9.000000   0.000000   1000.000000 0.000000  
; 108-0016
108-0016         140.000000 7.000000   0.000000   1000.000000 0.000000  
; 108-0017
108-0017         133.800000 16.700000  0.000000   1000.000000 0.000000  
; hospital
108-001H         128.500000 53.500000  0.000000   1000.000000 0.000000  
; A-38
1080             122.480000 7.520000   0.000000   1000.000000 0.000000  
; A-38
1082             116.640000 11.360000  0.000000   1000.000000 0.000000  
; A-38
1084             113.000000 12.000000  0.000000   1000.000000 0.000000  
; A-38
1086             112.320000 9.680000   0.000000   1000.000000 0.000000  
; A-38
1088             112.320000 9.680000   0.000000   1000.000000 0.000000  
; A-38
1090             106.940000 19.210000  0.000000   1000.000000 0.000000  
; A-38
1094             102.990000 13.010000  0.000000   1000.000000 0.000000  
; A-38
1096             103.600000 22.400000  0.000000   1000.000000 0.000000  
; A-38
1098             101.000000 9.000000   0.000000   1000.000000 0.000000  
; A-38
1100             79.090000  22.910000  0.000000   1000.000000 0.000000  
; A-38
1102             79.090000  18.020000  0.000000   1000.000000 0.000000  
; A-38
1104             85.030000  12.080000  0.000000   1000.000000 0.000000  
; A-38
1106             83.100000  8.900000   0.000000   1000.000000 0.000000  
; A-38
1108             81.510000  8.490000   0.000000   1000.000000 0.000000  
; A-38
1110             78.290000  6.710000   0.000000   1000.000000 0.000000  
; A-38
1112             73.690000  17.310000  0.000000   1000.000000 0.000000  
; A-38
1114             73.200000  6.800000   0.000000   1000.000000 0.000000  
; A-38
1116             71.610000  7.390000   0.000000   1000.000000 0.000000  
; A-38
1118             68.470000  5.530000   0.000000   1000.000000 0.000000  
; 112-0001
112-0001         134.330000 19.670000  0.000000   1000.000000 0.000000  
; 112-0002
112-0002         135.280000 22.190000  0.000000   1000.000000 0.000000  
; 112-0003
112-0003         137.100000 15.570000  0.000000   1000.000000 0.000000  
; 112-0004
112-0004         138.880000 8.350000   0.000000   1000.000000 0.000000  
; A-38
1120             63.160000  10.500000  0.000000   1000.000000 0.000000  
; A-38
1122             59.180000  12.940000  0.000000   1000.000000 0.000000  
; A-38
1124             57.140000  11.860000  0.000000   1000.000000 0.000000  
; A-38
1126             53.810000  12.850000  0.000000   1000.000000 0.000000  
; A-38
1128             51.020000  7.520000   0.000000   1000.000000 0.000000  
; A-38
1130             48.450000  10.550000  0.000000   1000.000000 0.000000  
; A-38
1132             46.800000  7.580000   0.000000   1000.000000 0.000000  
; A-38
1134             46.520000  7.860000   0.000000   1000.000000 0.000000  
; A-38
1136             40.900000  6.930000   0.000000   1000.000000 0.000000  
; A-38
1138             35.800000  6.500000   0.000000   1000.000000 0.000000  
; A-38
1140             35.100000  6.900000   0.000000   1000.000000 0.000000  
; A-38
1142             31.750000  9.250000   0.000000   1000.000000 0.000000  
; A-38
1144             30.250000  9.750000   0.000000   1000.000000 0.000000  
; A-38
1146             28.900000  12.100000  0.000000   1000.000000 0.000000  
; A-38
1148             28.110000  9.890000   0.000000   1000.000000 0.000000  
; A-38
1150             25.050000  52.280000  0.000000   1000.000000 0.000000  
; A-38
1152             24.570000  39.850000  0.000000   1000.000000 0.000000  
; A-38
1154             24.000000  10.000000  0.000000   1000.000000 0.000000  
; A-38
1156             23.880000  9.120000   0.000000   1000.000000 0.000000  
; A-38
1158             22.400000  8.600000   0.000000   1000.000000 0.000000  
; junc upper accokeek
116              0.000000   0.000000   0.000000   0.000000   0.000000  
; A-38
1160             20.240000  11.890000  0.000000   1000.000000 0.000000  
; A-38
1162             19.790000  18.210000  0.000000   1000.000000 0.000000  
; A-38
1164             19.600000  9.400000   0.000000   1000.000000 0.000000  
; A-38
1166             15.780000  12.910000  0.000000   1000.000000 0.000000  
; A-18
1168             14.770000  13.070000  0.000000   1000.000000 0.000000  
; A-18
1170             13.770000  12.120000  0.000000   1000.000000 0.000000  
; A-29
1172             80.000000  10.740000  0.000000   1000.000000 0.000000  
; A-29
1174             89.000000  9.550000   0.000000   1000.000000 0.000000  
; A-29
1176             103.470000 14.750000  0.000000   1000.000000 0.000000  
; A-29
1178             110.750000 14.970000  0.000000   1000.000000 0.000000  
; A-29
1180             115.680000 16.480000  0.000000   1000.000000 0.000000  
; A-28
1182             164.410000 5.590000   0.000000   1000.000000 0.000000  
; A-28
1184             166.000000 9.000000   0.000000   1000.000000 0.000000  
; A-28
1186             170.000000 10.000000  0.000000   1000.000000 0.000000  
; A-27
1188             230.050000 14.510000  0.000000   1000.000000 0.000000  
; A-27
1190             200.000000 0.000000   0.000000   1000.000000 0.000000  
; A-27
1192             170.000000 10.000000  0.000000   1000.000000 0.000000  
; A-27
1194             150.000000 -30.000000 0.000000   1000.000000 0.000000  
; A-27
1196             90.000000  0.000000   0.000000   1000.000000 0.000000  
; 40-0539
120              261.000000 0.000000   0.000000   1000.000000 0.000000  
; 14-0102
14-0102          180.110000 13.890000  0.000000   1000.000000 0.000000  
; 14-0103
14-0103          183.000000 15.000000  0.000000   1000.000000 0.000000  
; 14-0104
14-0104          183.190000 10.810000  0.000000   1000.000000 0.000000  
; 14-0105
14-0105          184.390000 14.110000  0.000000   1000.000000 0.000000  
; 14-0106
14-0106          185.500000 13.500000  0.000000   1000.000000 0.000000  
; 14-0107
14-0107          193.000000 7.000000   0.000000   1000.000000 0.000000  
; 14-0108
14-0108          202.000000 6.000000   0.000000   1000.000000 0.000000  
; 14-0109
14-0109          226.200000 11.800000  0.000000   1000.000000 0.000000  
; 14-0110
14-0110          229.000000 10.090000  0.000000   1000.000000 0.000000  
; 14-0110A
14-0110A         252.000000 10.660000  0.000000   1000.000000 0.000000  
; 14-0110B
14-0110B         255.000000 10.000000  0.000000   1000.000000 0.000000  
; 14-0111
14-0111          207.000000 9.310000   0.000000   1000.000000 0.000000  
; 14-0112
14-0112          235.320000 5.680000   0.000000   1000.000000 0.000000  
; 14-0116
14-0116          193.610000 5.650000   0.000000   1000.000000 0.000000  
; 14-0116A
14-0116A         182.280000 11.720000  0.000000   1000.000000 0.000000  
; 14-0117
14-0117          194.800000 9.870000   0.000000   1000.000000 0.000000  
; 14-0118
14-0118          202.800000 8.960000   0.000000   1000.000000 0.000000  
; 14-0120
14-0120          194.230000 6.520000   0.000000   1000.000000 0.000000  
; 14-0121
14-0121          195.840000 8.070000   0.000000   1000.000000 0.000000  
; 14-0122
14-0122          206.000000 8.290000   0.000000   1000.000000 0.000000  
; 14-0123
14-0123          227.800000 4.440000   0.000000   1000.000000 0.000000  
; 14-0124
14-0124          229.800000 6.870000   0.000000   1000.000000 0.000000  
; 14-0125
14-0125          236.270000 12.730000  0.000000   1000.000000 0.000000  
; 14-0126
14-0126          245.130000 1.870000   0.000000   1000.000000 0.000000  
; 14-0150
14-0150          190.740000 10.370000  0.000000   1000.000000 0.000000  
; 14-0151
14-0151          192.000000 13.160000  0.000000   1000.000000 0.000000  
; 14-0152
14-0152          194.840000 12.450000  0.000000   1000.000000 0.000000  
; 14-0153
14-0153          202.160000 6.500000   0.000000   1000.000000 0.000000  
; 14-0154
14-0154          205.220000 8.760000   0.000000   1000.000000 0.000000  
; 14-0155
14-0155          205.720000 7.960000   0.000000   1000.000000 0.000000  
; 14-0156
14-0156          206.200000 5.780000   0.000000   1000.000000 0.000000  
; 14-0157
14-0157          206.700000 4.600000   0.000000   1000.000000 0.000000  
; 14-0158
14-0158          207.720000 6.260000   0.000000   1000.000000 0.000000  
; 14-0201
14-0201          192.000000 8.480000   0.000000   1000.000000 0.000000  
; 14-0202
14-0202          201.860000 6.640000   0.000000   1000.000000 0.000000  
; 14-0203
14-0203          211.180000 6.820000   0.000000   1000.000000 0.000000  
; 14-0204
14-0204          213.290000 6.810000   0.000000   1000.000000 0.000000  
; 14-0205
14-0205          214.130000 8.470000   0.000000   1000.000000 0.000000  
; 14-0206
14-0206          222.400000 7.100000   0.000000   1000.000000 0.000000  
; 14-0207
14-0207          232.500000 7.500000   0.000000   1000.000000 0.000000  
; 14-0208
14-0208          238.130000 8.550000   0.000000   1000.000000 0.000000  
; 14-0209
14-0209          241.520000 11.380000  0.000000   1000.000000 0.000000  
; 14-0210
14-0210          243.210000 13.930000  0.000000   1000.000000 0.000000  
; 14-0211
14-0211          250.000000 9.540000   0.000000   1000.000000 0.000000  
; A-33
1824             69.000000  91.000000  0.000000   1000.000000 0.000000  
; A-33
1826             72.000000  88.000000  0.000000   1000.000000 0.000000  
; A-33
1828             75.000000  85.000000  0.000000   1000.000000 0.000000  
; A-33
1830             78.000000  82.000000  0.000000   1000.000000 0.000000  
; A-33
1832             81.000000  79.000000  0.000000   1000.000000 0.000000  
; A-33
1834             82.000000  78.000000  0.000000   1000.000000 0.000000  
; A-33
1836             83.000000  77.000000  0.000000   1000.000000 0.000000  
; A-33
1838             84.000000  76.000000  0.000000   1000.000000 0.000000  
; A-33
1840             85.000000  75.000000  0.000000   1000.000000 0.000000  
; A-33
1842             85.200000  74.800000  0.000000   1000.000000 0.000000  
; A-4
1844             88.000000  72.000000  0.000000   1000.000000 0.000000  
; A-4
1846             90.000000  70.000000  0.000000   1000.000000 0.000000  
; A-4
1848             91.000000  69.000000  0.000000   1000.000000 0.000000  
; A-4
1850             92.000000  68.000000  0.000000   1000.000000 0.000000  
; A-4
1852             93.000000  67.000000  0.000000   1000.000000 0.000000  
; A-207
1854             70.000000  90.000000  0.000000   1000.000000 0.000000  
; A-14
1856             52.710000  55.970000  0.000000   1000.000000 0.000000  
; A-31,5
1858             107.060000 1.620000   0.000000   1000.000000 0.000000  
; A-31,5
1860             107.060000 1.620000   0.000000   1000.000000 0.000000  
; A-31,5
1862             107.060000 1.620000   0.000000   1000.000000 0.000000  
; A-31,5
1864             107.060000 1.620000   0.000000   1000.000000 0.000000  
; A-18
1866             19.190000  6.700000   0.000000   1000.000000 0.000000  
; 40-0500, A-14
1868             20.350000  5.250000   0.000000   1000.000000 0.000000  
; 40-0502, A-14
1874             23.370000  4.430000   0.000000   1000.000000 0.000000  
; 40-0503, A-14
1876             27.850000  4.650000   0.000000   1000.000000 0.000000  
; 40-0505, A-14
1878             33.000000  4.500000   0.000000   1000.000000 0.000000  
; 40-0507, A-14
1880             44.860000  5.140000   0.000000   1000.000000 0.000000  
; 40-0508, A-14
1882             49.210000  10.290000  0.000000   1000.000000 0.000000  
; 40-0509, A-14
1884             50.910000  6.590000   0.000000   1000.000000 0.000000  
; 40-0510, A-14
1886             52.610000  2.390000   0.000000   1000.000000 0.000000  
; 40-0511, A-14
1888             52.610000  5.390000   0.000000   1000.000000 0.000000  
; 40-0511, A-14
1890             52.610000  5.390000   0.000000   1000.000000 0.000000  
; 40-0511, A-14
1892             52.610000  5.390000   0.000000   1000.000000 0.000000  
; 40-0511, A-14
1894             52.610000  5.390000   0.000000   1000.000000 0.000000  
; 40-0511, A-14
1896             52.610000  5.390000   0.000000   1000.000000 0.000000  
; 40-0511, A-14
1898             52.610000  5.390000   0.000000   1000.000000 0.000000  
; 40-0511, A-14
1900             52.610000  5.390000   0.000000   1000.000000 0.000000  
; 40-0511, A-14
1902             52.610000  5.390000   0.000000   1000.000000 0.000000  
; 40-0511, A-14
1904             52.610000  5.390000   0.000000   1000.000000 0.000000  
; 40-0511, A-14
1906             52.610000  5.390000   0.000000   1000.000000 0.000000  
; 40-0741, A-16
1908             67.130000  7.870000   0.000000   1000.000000 0.000000  
; 40-0742, A-16
1910             67.740000  9.260000   0.000000   1000.000000 0.000000  
; 40-0743, A-16
1912             69.340000  7.160000   0.000000   1000.000000 0.000000  
; 40-0866, A-16
1914             69.840000  13.060000  0.000000   1000.000000 0.000000  
; 40-0744, A-16
1916             70.890000  8.610000   0.000000   1000.000000 0.000000  
; A-38
1936             172.900000 21.100000  0.000000   1000.000000 0.000000  
; 49-0835
1938             52.610000  69.390000  0.000000   1000.000000 0.000000  
; 49-0835
1940             0.000000   322.500000 0.000000   1000.000000 0.000000  
; 49-0835
1942             125.500000 23.500000  0.000000   1000.000000 0.000000  
; 25-0100
25-0100          87.360000  9.140000   0.000000   1000.000000 0.000000  
; 25-0101
25-0101          87.460000  8.920000   0.000000   1000.000000 0.000000  
; 25-0102
25-0102          91.460000  12.340000  0.000000   1000.000000 0.000000  
; 25-0103
25-0103          113.730000 10.490000  0.000000   1000.000000 0.000000  
; 25-0104
25-0104          135.650000 6.610000   0.000000   1000.000000 0.000000  
; 25-0110
25-0110          105.790000 7.670000   0.000000   1000.000000 0.000000  
; 25-0111
25-0111          119.390000 7.410000   0.000000   1000.000000 0.000000  
; 25-0112
25-0112          144.920000 6.680000   0.000000   1000.000000 0.000000  
; 25-0113
25-0113          164.960000 6.450000   0.000000   1000.000000 0.000000  
; 25-0114
25-0114          172.860000 6.110000   0.000000   1000.000000 0.000000  
; 26-0100
26-0100          135.000000 9.500000   0.000000   1000.000000 0.000000  
26-0101          148.400000 8.900000   0.000000   1000.000000 0.000000  
26-0102          157.510000 7.290000   0.000000   1000.000000 0.000000  
; 37-0002
37-0002          224.740000 15.680000  0.000000   1000.000000 0.000000  
; 37-0003
37-0003          236.040000 6.920000   0.000000   1000.000000 0.000000  
; 37-0004
37-0004          236.800000 6.200000   0.000000   1000.000000 0.000000  
; 37-0005
37-0005          239.180000 6.240000   0.000000   1000.000000 0.000000  
; 37-0006
37-0006          242.750000 6.150000   0.000000   1000.000000 0.000000  
; 37-0007
37-0007          247.090000 6.450000   0.000000   1000.000000 0.000000  
; 37-0008
37-0008          260.050000 7.120000   0.000000   1000.000000 0.000000  
; 37-0009
37-0009          273.590000 7.490000   0.000000   1000.000000 0.000000  
; 37-0010
37-0010          240.740000 9.170000   0.000000   1000.000000 0.000000  
; 37-0011
37-0011          242.720000 6.780000   0.000000   1000.000000 0.000000  
; 37-0012
37-0012          243.770000 13.090000  0.000000   1000.000000 0.000000  
; 37-0013
37-0013          244.510000 15.120000  0.000000   1000.000000 0.000000  
; 37-0014
37-0014          244.630000 15.100000  0.000000   1000.000000 0.000000  
; 37-0020
37-0020          226.610000 10.190000  0.000000   1000.000000 0.000000  
; 37-0021
37-0021          230.820000 13.720000  0.000000   1000.000000 0.000000  
; 37-0030
37-0030          244.040000 11.460000  0.000000   1000.000000 0.000000  
; 37-0031
37-0031          245.280000 5.720000   0.000000   1000.000000 0.000000  
; 37-0101
37-0101          264.000000 7.280000   0.000000   1000.000000 0.000000  
; 37-0101A
37-0101A         277.000000 5.500000   0.000000   1000.000000 0.000000  
; 37-0102
37-0102          246.660000 13.340000  0.000000   1000.000000 0.000000  
; 37-0103
37-0103          259.870000 4.130000   0.000000   1000.000000 0.000000  
; 37-0104
37-0104          264.880000 7.120000   0.000000   1000.000000 0.000000  
; 37-0105
37-0105          265.960000 5.040000   0.000000   1000.000000 0.000000  
; 37-0106
37-0106          276.000000 5.100000   0.000000   1000.000000 0.000000  
; 37-0120
37-0120          250.070000 5.130000   0.000000   1000.000000 0.000000  
; 37-0121
37-0121          259.170000 3.830000   0.000000   1000.000000 0.000000  
; 37-0121A
37-0121A         261.000000 4.380000   0.000000   1000.000000 0.000000  
; 37-0122
37-0122          267.920000 7.080000   0.000000   1000.000000 0.000000  
; 37-0122A
37-0122A         273.810000 4.190000   0.000000   1000.000000 0.000000  
; 37-0123
37-0123          278.000000 4.000000   0.000000   1000.000000 0.000000  
; 37-0123L
37-0123L         278.880000 3.110000   0.000000   1000.000000 0.000000  
; 37-0124
37-0124          275.600000 5.100000   0.000000   1000.000000 0.000000  
; 37-0125
37-0125          276.740000 3.260000   0.000000   1000.000000 0.000000  
; 37-0126
37-0126          282.250000 8.750000   0.000000   1000.000000 0.000000  
; 37-0127
37-0127          284.070000 9.930000   0.000000   1000.000000 0.000000  
; 37-0140
37-0140          271.000000 6.000000   0.000000   1000.000000 0.000000  
; 37-0141
37-0141          264.500000 10.640000  0.000000   1000.000000 0.000000  
; 37-0142
37-0142          261.190000 9.430000   0.000000   1000.000000 0.000000  
; 37-0143
37-0143          258.620000 8.000000   0.000000   1000.000000 0.000000  
; 37-0144
37-0144          242.000000 16.000000  0.000000   1000.000000 0.000000  
; 37-0145
37-0145          240.420000 12.580000  0.000000   1000.000000 0.000000  
; 37-0146
37-0146          238.550000 14.950000  0.000000   1000.000000 0.000000  
; 39-0100
39-0100          241.000000 3.500000   0.000000   1000.000000 0.000000  
; 39-0101
39-0101          242.800000 6.820000   0.000000   1000.000000 0.000000  
; 39-0102
39-0102          248.500000 12.060000  0.000000   1000.000000 0.000000  
; 39-0103
39-0103          259.500000 9.500000   0.000000   1000.000000 0.000000  
; 39-0104
39-0104          269.500000 5.000000   0.000000   1000.000000 0.000000  
; 39-0105
39-0105          250.000000 7.220000   0.000000   1000.000000 0.000000  
; 40-0097
40-0097          246.950000 4.250000   0.000000   1000.000000 0.000000  
; 40-0098
40-0098          245.550000 3.950000   0.000000   1000.000000 0.000000  
; 40-0099
40-0099          245.100000 3.400000   0.000000   1000.000000 0.000000  
; 40-0100
40-0100          241.000000 9.000000   0.000000   1000.000000 0.000000  
; 40-0101
40-0101          13.770000  12.120000  0.000000   1000.000000 0.000000  
; 40-0102
40-0102          14.770000  13.070000  0.000000   1000.000000 0.000000  
; 40-0103
40-0103          15.780000  12.910000  0.000000   1000.000000 0.000000  
; 40-0104
40-0104          19.530000  9.470000   0.000000   1000.000000 0.000000  
; 40-0105
40-0105          19.790000  18.210000  0.000000   1000.000000 0.000000  
; 40-0105A
40-0105A         20.240000  11.890000  0.000000   1000.000000 0.000000  
; 40-0106
40-0106          22.400000  8.600000   0.000000   1000.000000 0.000000  
; 40-0106A
40-0106A         21.700000  15.650000  0.000000   1000.000000 0.000000  
; 40-0107
40-0107          23.880000  9.120000   0.000000   1000.000000 0.000000  
; 40-0107A
40-0107A         22.720000  15.600000  0.000000   1000.000000 0.000000  
; 40-0108
40-0108          24.000000  10.000000  0.000000   1000.000000 0.000000  
; 40-0108A
40-0108A         24.570000  39.850000  0.000000   1000.000000 0.000000  
; 40-0109
40-0109          28.110000  9.890000   0.000000   1000.000000 0.000000  
; 40-0110
40-0110          28.900000  12.100000  0.000000   1000.000000 0.000000  
; 40-0111
40-0111          30.250000  9.750000   0.000000   1000.000000 0.000000  
; 40-0112
40-0112          31.750000  9.250000   0.000000   1000.000000 0.000000  
; 40-0113
40-0113          35.100000  6.900000   0.000000   1000.000000 0.000000  
; 40-0114
40-0114          35.800000  6.500000   0.000000   1000.000000 0.000000  
; 40-0115
40-0115          40.900000  6.930000   0.000000   1000.000000 0.000000  
; 40-0116
40-0116          46.520000  7.860000   0.000000   1000.000000 0.000000  
; 40-0117
40-0117          46.800000  7.580000   0.000000   1000.000000 0.000000  
; 40-0118
40-0118          48.450000  10.550000  0.000000   1000.000000 0.000000  
; 40-0119
40-0119          51.020000  7.520000   0.000000   1000.000000 0.000000  
; 40-0120
40-0120          53.810000  12.850000  0.000000   1000.000000 0.000000  
; 40-0121
40-0121          57.140000  11.880000  0.000000   1000.000000 0.000000  
; 40-0121A
40-0121A         57.550000  11.450000  0.000000   1000.000000 0.000000  
; 40-0122
40-0122          59.180000  13.260000  0.000000   1000.000000 0.000000  
; 40-0122A
40-0122A         60.690000  11.430000  0.000000   1000.000000 0.000000  
; 40-0123
40-0123          63.160000  10.790000  0.000000   1000.000000 0.000000  
; 40-0123A
40-0123A         63.810000  9.850000   0.000000   1000.000000 0.000000  
; 40-0124
40-0124          68.470000  6.530000   0.000000   1000.000000 0.000000  
; 40-0124A
40-0124A         68.770000  5.230000   0.000000   1000.000000 0.000000  
; 40-0125
40-0125          71.600000  7.970000   0.000000   1000.000000 0.000000  
; 40-0125A
40-0125A         72.000000  7.000000   0.000000   1000.000000 0.000000  
; 40-0126
40-0126          73.200000  6.800000   0.000000   1000.000000 0.000000  
; 40-0127
40-0127          73.690000  17.310000  0.000000   1000.000000 0.000000  
; 40-0128
40-0128          78.290000  6.710000   0.000000   1000.000000 0.000000  
; 40-0129
40-0129          79.090000  10.910000  0.000000   1000.000000 0.000000  
; 40-0130
40-0130          83.100000  8.900000   0.000000   1000.000000 0.000000  
; 40-0131