[TITLE]
;;Project Title/Notes

[OPTIONS]
;;Option             Value
FLOW_UNITS           GPM
INFILTRATION         HORTON
FLOW_ROUTING         DYNWAVE
LINK_OFFSETS         DEPTH
MIN_SLOPE            0
ALLOW_PONDING        YES
SKIP_STEADY_STATE    NO

START_DATE           01/01/2002
START_TIME           00:00:00
REPORT_START_DATE    01/01/2002
REPORT_START_TIME    00:00:00
END_DATE             01/01/2002
END_TIME             04:00:00
SWEEP_START          01/01
SWEEP_END            12/31
DRY_DAYS             0
REPORT_STEP          00:05:00
WET_STEP             01:00:00
DRY_STEP             24:00:00
ROUTING_STEP         0:00:30 

INERTIAL_DAMPING     NONE
NORMAL_FLOW_LIMITED  SLOPE
FORCE_MAIN_EQUATION  H-W
VARIABLE_STEP        0.00
LENGTHENING_STEP     10
MIN_SURFAREA         0.75
MAX_TRIALS           8
HEAD_TOLERANCE       0.005
SYS_FLOW_TOL         5
LAT_FLOW_TOL         5
MINIMUM_STEP         0.5
THREADS              1

[EVAPORATION]
;;Data Source    Parameters
;;-------------- ----------------
CONSTANT         0.0
DRY_ONLY         NO

[JUNCTIONS]
;;Name           Elevation  MaxDepth   InitDepth  SurDepth   Aponded   
;;-------------- ---------- ---------- ---------- ---------- ----------
10               130.120000 1          0.000000   0.000000   0.000000  
100              127.360000 1          0.000000   0.000000   0.000000  
1000             101.610000 1          0.000000   0.000000   0.000000  
1002             109.860000 1          0.000000   0.000000   0.000000  
1004             106.120000 1          0.000000   0.000000   0.000000  
1006             104.590000 1          0.000000   0.000000   0.000000  
1008             111.370000 1          0.000000   0.000000   0.000000  
1010             112.400000 1          0.000000   0.000000   0.000000  
1012             103.680000 1          0.000000   0.000000   0.000000  
1014             103.160000 1          0.000000   0.000000   0.000000  
1016             102.800000 1          0.000000   0.000000   0.000000  
1018             102.440000 1          0.000000   0.000000   0.000000  
102              128.180000 1          0.000000   0.000000   0.000000  
1020             101.780000 1          0.000000   0.000000   0.000000  
1022             100.820000 1          0.000000   0.000000   0.000000  
1024             111.910000 1          0.000000   0.000000   0.000000  
1026             98.560000  1          0.000000   0.000000   0.000000  
1028             99.170000  1          0.000000   0.000000   0.000000  
1030             100.190000 1          0.000000   0.000000   0.000000  
1032             111.830000 1          0.000000   0.000000   0.000000  
1034             102.040000 1          0.000000   0.000000   0.000000  
1036             97.100000  1          0.000000   0.000000   0.000000  
1038             91.000000  1          0.000000   0.000000   0.000000  
104              119.740000 1          0.000000   0.000000   0.000000  
1040             82.700000  1          0.000000   0.000000   0.000000  
1042             52.610000  1          0.000000   0.000000   0.000000  
1044             69.700000  1          0.000000   0.000000   0.000000  
1046             44.600000  1          0.000000   0.000000   0.000000  
1048             41.870000  1          0.000000   0.000000   0.000000  
1050             113.510000 1          0.000000   0.000000   0.000000  
1052             115.510000 1          0.000000   0.000000   0.000000  
1054             112.790000 1          0.000000   0.000000   0.000000  
1056             112.150000 1          0.000000   0.000000   0.000000  
1058             111.600000 1          0.000000   0.000000   0.000000  
106              121.000000 1          0.000000   0.000000   0.000000  
1060             110.740000 1          0.000000   0.000000   0.000000  
1062             109.690000 1          0.000000   0.000000   0.000000  
1064             108.370000 1          0.000000   0.000000   0.000000  
1066             107.170000 1          0.000000   0.000000   0.000000  
1068             106.470000 1          0.000000   0.000000   0.000000  
1070             105.570000 1          0.000000   0.000000   0.000000  
1072             102.860000 1          0.000000   0.000000   0.000000  
1074             85.710000  1          0.000000   0.000000   0.000000  
1076             96.560000  1          0.000000   0.000000   0.000000  
1078             43.890000  1          0.000000   0.000000   0.000000  
108              127.870000 1          0.000000   0.000000   0.000000  
1080             41.810000  1          0.000000   0.000000   0.000000  
1082             40.330000  1          0.000000   0.000000   0.000000  
1084             39.510000  1          0.000000   0.000000   0.000000  
1086             38.130000  1          0.000000   0.000000   0.000000  
1088             37.020000  1          0.000000   0.000000   0.000000  
1090             117.000000 1          0.000000   0.000000   0.000000  
1092             118.120000 1          0.000000   0.000000   0.000000  
1094             114.750000 1          0.000000   0.000000   0.000000  
1096             114.160000 1          0.000000   0.000000   0.000000  
1098             113.600000 1          0.000000   0.000000   0.000000  
110              122.800000 1          0.000000   0.000000   0.000000  
1100             113.050000 1          0.000000   0.000000   0.000000  
1102             112.500000 1          0.000000   0.000000   0.000000  
1104             109.000000 1          0.000000   0.000000   0.000000  
1106             107.440000 1          0.000000   0.000000   0.000000  
1108             106.920000 1          0.000000   0.000000   0.000000  
1110             106.400000 1          0.000000   0.000000   0.000000  
1112             105.460000 1          0.000000   0.000000   0.000000  
1114             105.360000 1          0.000000   0.000000   0.000000  
1116             104.820000 1          0.000000   0.000000   0.000000  
1118             103.460000 1          0.000000   0.000000   0.000000  
112              123.840000 1          0.000000   0.000000   0.000000  
1120             102.320000 1          0.000000   0.000000   0.000000  
1122             101.340000 1          0.000000   0.000000   0.000000  
1124             85.210000  1          0.000000   0.000000   0.000000  
1126             45.410000  1          0.000000   0.000000   0.000000  
1128             106.140000 1          0.000000   0.000000   0.000000  
1130             107.020000 1          0.000000   0.000000   0.000000  
1132             109.770000 1          0.000000   0.000000   0.000000  
1134             110.210000 1          0.000000   0.000000   0.000000  
1136             111.010000 1          0.000000   0.000000   0.000000  
1138             111.050000 1          0.000000   0.000000   0.000000  
114              123.700000 1          0.000000   0.000000   0.000000  
; FLOW METER VAULT
1140             19.970000  1          0.000000   0.000000   0.000000  
1144             3.370000   1          0.000000   0.000000   0.000000  
1146             5.090000   1          0.000000   0.000000   0.000000  
1148             6.750000   1          0.000000   0.000000   0.000000  
1150             7.590000   1          0.000000   0.000000   0.000000  
1152             8.560000   1          0.000000   0.000000   0.000000  
1154             10.400000  1          0.000000   0.000000   0.000000  
1156             11.000000  1          0.000000   0.000000   0.000000  
1158             12.630000  1          0.000000   0.000000   0.000000  
116              126.400000 1          0.000000   0.000000   0.000000  
1160             14.410000  1          0.000000   0.000000   0.000000  
1162             16.290000  1          0.000000   0.000000   0.000000  
1164             17.240000  1          0.000000   0.000000   0.000000  
1166             18.130000  1          0.000000   0.000000   0.000000  
1168             41.570000  1          0.000000   0.000000   0.000000  
1170             42.680000  1          0.000000   0.000000   0.000000  
1172             43.820000  1          0.000000   0.000000   0.000000  
1174             44.910000  1          0.000000   0.000000   0.000000  
1176             47.380000  1          0.000000   0.000000   0.000000  
1178             48.210000  1          0.000000   0.000000   0.000000  
118              130.940000 1          0.000000   0.000000   0.000000  
1180             132.810000 1          0.000000   0.000000   0.000000  
1182             131.110000 1          0.000000   0.000000   0.000000  
1184             130.120000 1          0.000000   0.000000   0.000000  
1186             129.620000 1          0.000000   0.000000   0.000000  
1188             128.570000 1          0.000000   0.000000   0.000000  
1190             133.090000 1          0.000000   0.000000   0.000000  
1192             133.400000 1          0.000000   0.000000   0.000000  
1194             134.240000 1          0.000000   0.000000   0.000000  
1196             135.500000 1          0.000000   0.000000   0.000000  
1198             128.020000 1          0.000000   0.000000   0.000000  
12               141.950000 1          0.000000   0.000000   0.000000  
120              132.060000 1          0.000000   0.000000   0.000000  
1200             126.310000 1          0.000000   0.000000   0.000000  
1202             131.990000 1          0.000000   0.000000   0.000000  
1204             125.240000 1          0.000000   0.000000   0.000000  
1206             131.760000 1          0.000000   0.000000   0.000000  
1208             133.500000 1          0.000000   0.000000   0.000000  
1210             122.250000 1          0.000000   0.000000   0.000000  
1212             124.160000 1          0.000000   0.000000   0.000000  
1214             107.690000 1          0.000000   0.000000   0.000000  
1216             108.710000 1          0.000000   0.000000   0.000000  
; <Null>
1218             109.230000 1          0.000000   0.000000   0.000000  
122              133.670000 1          0.000000   0.000000   0.000000  
1220             110.170000 1          0.000000   0.000000   0.000000  
1222             111.440000 1          0.000000   0.000000   0.000000  
1224             107.290000 1          0.000000   0.000000   0.000000  
1226             108.250000 1          0.000000   0.000000   0.000000  
1228             109.370000 1          0.000000   0.000000   0.000000  
1230             122.450000 1          0.000000   0.000000   0.000000  
1232             110.540000 1          0.000000   0.000000   0.000000  
1234             109.950000 1          0.000000   0.000000   0.000000  
1236             113.920000 1          0.000000   0.000000   0.000000  
1238             116.000000 1          0.000000   0.000000   0.000000  
124              130.010000 1          0.000000   0.000000   0.000000  
1240             111.310000 1          0.000000   0.000000   0.000000  
1242             112.000000 1          0.000000   0.000000   0.000000  
1244             112.740000 1          0.000000   0.000000   0.000000  
1246             118.000000 1          0.000000   0.000000   0.000000  
1248             110.850000 1          0.000000   0.000000   0.000000  
1250             113.000000 1          0.000000   0.000000   0.000000  
1252             106.650000 1          0.000000   0.000000   0.000000  
1254             114.010000 1          0.000000   0.000000   0.000000  
1256             112.310000 1          0.000000   0.000000   0.000000  
1258             114.950000 1          0.000000   0.000000   0.000000  
126              131.030000 1          0.000000   0.000000   0.000000  
1260             113.180000 1          0.000000   0.000000   0.000000  
1262             114.580000 1          0.000000   0.000000   0.000000  
1264             116.710000 1          0.000000   0.000000   0.000000  
1266             118.400000 1          0.000000   0.000000   0.000000  
1268             119.700000 1          0.000000   0.000000   0.000000  
1270             127.000000 1          0.000000   0.000000   0.000000  
1272             136.140000 1          0.000000   0.000000   0.000000  
1274             121.560000 1          0.000000   0.000000   0.000000  
1276             133.920000 1          0.000000   0.000000   0.000000  
1278             132.450000 1          0.000000   0.000000   0.000000  
128              131.910000 1          0.000000   0.000000   0.000000  
1280             135.200000 1          0.000000   0.000000   0.000000  
1282             113.450000 1          0.000000   0.000000   0.000000  
1284             114.790000 1          0.000000   0.000000   0.000000  
1286             117.510000 1          0.000000   0.000000   0.000000  
1288             129.500000 1          0.000000   0.000000   0.000000  
1290             116.130000 1          0.000000   0.000000   0.000000  
1292             118.800000 1          0.000000   0.000000   0.000000  
1294             115.290000 1          0.000000   0.000000   0.000000  
1296             115.990000 1          0.000000   0.000000   0.000000  
1298             116.860000 1          0.000000   0.000000   0.000000  
130              132.330000 1          0.000000   0.000000   0.000000  
1300             119.260000 1          0.000000   0.000000   0.000000  
1302             118.790000 1          0.000000   0.000000   0.000000  
1304             120.410000 1          0.000000   0.000000   0.000000  
1306             121.120000 1          0.000000   0.000000   0.000000  
1308             121.930000 1          0.000000   0.000000   0.000000  
1310             122.790000 1          0.000000   0.000000   0.000000  
1312             133.480000 1          0.000000   0.000000   0.000000  
1314             134.800000 1          0.000000   0.000000   0.000000  
1316             135.500000 1          0.000000   0.000000   0.000000  
1318             123.390000 1          0.000000   0.000000   0.000000  
132              127.970000 1          0.000000   0.000000   0.000000  
1320             133.470000 1          0.000000   0.000000   0.000000  
1322             122.820000 1          0.000000   0.000000   0.000000  
1324             124.520000 1          0.000000   0.000000   0.000000  
1326             125.340000 1          0.000000   0.000000   0.000000  
1328             126.590000 1          0.000000   0.000000   0.000000  
1330             123.990000 1          0.000000   0.000000   0.000000  
1332             125.270000 1          0.000000   0.000000   0.000000  
1334             126.500000 1          0.000000   0.000000   0.000000  
1336             127.730000 1          0.000000   0.000000   0.000000  
1338             128.210000 1          0.000000   0.000000   0.000000  
134              127.550000 1          0.000000   0.000000   0.000000  
1340             126.380000 1          0.000000   0.000000   0.000000  
1342             127.680000 1          0.000000   0.000000   0.000000  
1344             128.960000 1          0.000000   0.000000   0.000000  
1346             130.020000 1          0.000000   0.000000   0.000000  
1348             131.180000 1          0.000000   0.000000   0.000000  
1350             128.770000 1          0.000000   0.000000   0.000000  
1352             129.370000 1          0.000000   0.000000   0.000000  
1354             130.250000 1          0.000000   0.000000   0.000000  
1356             131.870000 1          0.000000   0.000000   0.000000  
1358             134.100000 1          0.000000   0.000000   0.000000  
136              126.010000 1          0.000000   0.000000   0.000000  
1360             100.660000 1          0.000000   0.000000   0.000000  
1362             91.980000  1          0.000000   0.000000   0.000000  
1364             92.670000  1          0.000000   0.000000   0.000000  
1366             102.800000 1          0.000000   0.000000   0.000000  
1368             103.040000 1          0.000000   0.000000   0.000000  
1370             101.360000 1          0.000000   0.000000   0.000000  
1372             102.730000 1          0.000000   0.000000   0.000000  
1374             103.960000 1          0.000000   0.000000   0.000000  
1376             91.260000  1          0.000000   0.000000   0.000000  
1378             90.700000  1          0.000000   0.000000   0.000000  
138              124.500000 1          0.000000   0.000000   0.000000  
1380             89.530000  1          0.000000   0.000000   0.000000  
1382             86.080000  1          0.000000   0.000000   0.000000  
1384             86.880000  1          0.000000   0.000000   0.000000  
1386             88.580000  1          0.000000   0.000000   0.000000  
1388             108.730000 1          0.000000   0.000000   0.000000  
1390             105.100000 1          0.000000   0.000000   0.000000  
1392             104.500000 1          0.000000   0.000000   0.000000  
1394             96.540000  1          0.000000   0.000000   0.000000  
1396             94.380000  1          0.000000   0.000000   0.000000  
1398             94.160000  1          0.000000   0.000000   0.000000  
14               146.460000 1          0.000000   0.000000   0.000000  
140              118.970000 1          0.000000   0.000000   0.000000  
1400             92.280000  1          0.000000   0.000000   0.000000  
1402             95.890000  1          0.000000   0.000000   0.000000  
1404             107.300000 1          0.000000   0.000000   0.000000  
1406             105.240000 1          0.000000   0.000000   0.000000  
1408             103.590000 1          0.000000   0.000000   0.000000  
1410             107.270000 1          0.000000   0.000000   0.000000  
1412             93.990000  1          0.000000   0.000000   0.000000  
1414             98.380000  1          0.000000   0.000000   0.000000  
1416             102.330000 1          0.000000   0.000000   0.000000  
1418             103.270000 1          0.000000   0.000000   0.000000  
142              119.740000 1          0.000000   0.000000   0.000000  
1420             92.180000  1          0.000000   0.000000   0.000000  
1422             108.560000 1          0.000000   0.000000   0.000000  
1424             101.270000 1          0.000000   0.000000   0.000000  
1426             94.900000  1          0.000000   0.000000   0.000000  
1428             96.410000  1          0.000000   0.000000   0.000000  
1430             107.770000 1          0.000000   0.000000   0.000000  
1432             94.120000  1          0.000000   0.000000   0.000000  
1434             93.040000  1          0.000000   0.000000   0.000000  
1436             92.120000  1          0.000000   0.000000   0.000000  
1438             105.860000 1          0.000000   0.000000   0.000000  
144              121.220000 1          0.000000   0.000000   0.000000  
1440             84.930000  1          0.000000   0.000000   0.000000  
1442             122.530000 1          0.000000   0.000000   0.000000  
1444             117.020000 1          0.000000   0.000000   0.000000  
1446             109.330000 1          0.000000   0.000000   0.000000  
1448             90.430000  1          0.000000   0.000000   0.000000  
1450             97.580000  1          0.000000   0.000000   0.000000  
1452             98.440000  1          0.000000   0.000000   0.000000  
1454             99.310000  1          0.000000   0.000000   0.000000  
1456             100.160000 1          0.000000   0.000000   0.000000  
1458             101.850000 1          0.000000   0.000000   0.000000  
146              120.070000 1          0.000000   0.000000   0.000000  
1460             87.900000  1          0.000000   0.000000   0.000000  
1462             93.770000  1          0.000000   0.000000   0.000000  
1464             108.380000 1          0.000000   0.000000   0.000000  
1466             115.650000 1          0.000000   0.000000   0.000000  
1468             117.250000 1          0.000000   0.000000   0.000000  
1470             119.000000 1          0.000000   0.000000   0.000000  
1472             118.440000 1          0.000000   0.000000   0.000000  
1474             114.530000 1          0.000000   0.000000   0.000000  
1476             110.400000 1          0.000000   0.000000   0.000000  
1478             115.500000 1          0.000000   0.000000   0.000000  
148              121.340000 1          0.000000   0.000000   0.000000  
1480             94.530000  1          0.000000   0.000000   0.000000  
1482             107.000000 1          0.000000   0.000000   0.000000  
1484             116.400000 1          0.000000   0.000000   0.000000  
1486             111.700000 1          0.000000   0.000000   0.000000  
1488             99.420000  1          0.000000   0.000000   0.000000  
1490             126.580000 1          0.000000   0.000000   0.000000  
1492             119.950000 1          0.000000   0.000000   0.000000  
1494             107.850000 1          0.000000   0.000000   0.000000  
1496             101.840000 1          0.000000   0.000000   0.000000  
1498             105.300000 1          0.000000   0.000000   0.000000  
150              121.870000 1          0.000000   0.000000   0.000000  
1500             117.920000 1          0.000000   0.000000   0.000000  
1502             114.910000 1          0.000000   0.000000   0.000000  
1504             105.610000 1          0.000000   0.000000   0.000000  
1506             104.950000 1          0.000000   0.000000   0.000000  
1508             94.810000  1          0.000000   0.000000   0.000000  
1510             111.390000 1          0.000000   0.000000   0.000000  
1512             121.870000 1          0.000000   0.000000   0.000000  
1514             124.450000 1          0.000000   0.000000   0.000000  
1516             126.950000 1          0.000000   0.000000   0.000000  
1518             115.070000 1          0.000000   0.000000   0.000000  
152              119.040000 1          0.000000   0.000000   0.000000  
1520             114.130000 1          0.000000   0.000000   0.000000  
1522             113.390000 1          0.000000   0.000000   0.000000  
1524             119.460000 1          0.000000   0.000000   0.000000  
1526             121.060000 1          0.000000   0.000000   0.000000  
1528             108.350000 1          0.000000   0.000000   0.000000  
1530             120.650000 1          0.000000   0.000000   0.000000  
1532             116.300000 1          0.000000   0.000000   0.000000  
1534             117.540000 1          0.000000   0.000000   0.000000  
1536             115.520000 1          0.000000   0.000000   0.000000  
1538             109.390000 1          0.000000   0.000000   0.000000  
154              117.970000 1          0.000000   0.000000   0.000000  
1540             120.490000 1          0.000000   0.000000   0.000000  
1542             122.670000 1          0.000000   0.000000   0.000000  
1544             100.790000 1          0.000000   0.000000   0.000000  
1546             101.950000 1          0.000000   0.000000   0.000000  
; 102.89
1548             102.890000 1          0.000000   0.000000   0.000000  
1550             104.520000 1          0.000000   0.000000   0.000000  
1552             104.620000 1          0.000000   0.000000   0.000000  
1554             105.140000 1          0.000000   0.000000   0.000000  
1556             105.860000 1          0.000000   0.000000   0.000000  
1558             111.850000 1          0.000000   0.000000   0.000000  
156              103.730000 1          0.000000   0.000000   0.000000  
1560             103.040000 1          0.000000   0.000000   0.000000  
1562             104.600000 1          0.000000   0.000000   0.000000  
1564             105.430000 1          0.000000   0.000000   0.000000  
1566             106.160000 1          0.000000   0.000000   0.000000  
1568             106.860000 1          0.000000   0.000000   0.000000  
1570             101.000000 1          0.000000   0.000000   0.000000  
1572             104.600000 1          0.000000   0.000000   0.000000  
1574             106.250000 1          0.000000   0.000000   0.000000  
1576             110.850000 1          0.000000   0.000000   0.000000  
1578             85.370000  1          0.000000   0.000000   0.000000  
158              102.610000 1          0.000000   0.000000   0.000000  
1580             86.110000  1          0.000000   0.000000   0.000000  
1582             87.810000  1          0.000000   0.000000   0.000000  
1584             105.500000 1          0.000000   0.000000   0.000000  
1586             89.240000  1          0.000000   0.000000   0.000000  
1588             89.830000  1          0.000000   0.000000   0.000000  
1590             91.150000  1          0.000000   0.000000   0.000000  
1592             92.010000  1          0.000000   0.000000   0.000000  
1594             92.180000  1          0.000000   0.000000   0.000000  
1596             92.950000  1          0.000000   0.000000   0.000000  
1598             94.120000  1          0.000000   0.000000   0.000000  
16               118.600000 1          0.000000   0.000000   0.000000  
160              100.910000 1          0.000000   0.000000   0.000000  
1600             83.690000  1          0.000000   0.000000   0.000000  
; NA
1602             83.310000  1          0.000000   0.000000   0.000000  
1604             101.950000 1          0.000000   0.000000   0.000000  
1606             99.420000  1          0.000000   0.000000   0.000000  
1608             98.000000  1          0.000000   0.000000   0.000000  
1610             94.110000  1          0.000000   0.000000   0.000000  
1612             88.000000  1          0.000000   0.000000   0.000000  
1614             84.950000  1          0.000000   0.000000   0.000000  
1616             92.040000  1          0.000000   0.000000   0.000000  
1618             82.940000  1          0.000000   0.000000   0.000000  
162              100.060000 1          0.000000   0.000000   0.000000  
1620             79.670000  1          0.000000   0.000000   0.000000  
1622             76.400000  1          0.000000   0.000000   0.000000  
1624             58.000000  1          0.000000   0.000000   0.000000  
1626             60.000000  1          0.000000   0.000000   0.000000  
1628             57.770000  1          0.000000   0.000000   0.000000  
1630             56.750000  1          0.000000   0.000000   0.000000  
1632             55.650000  1          0.000000   0.000000   0.000000  
1634             54.690000  1          0.000000   0.000000   0.000000  
1636             56.680000  1          0.000000   0.000000   0.000000  
1638             63.480000  1          0.000000   0.000000   0.000000  
164              100.500000 1          0.000000   0.000000   0.000000  
1640             65.000000  1          0.000000   0.000000   0.000000  
1642             53.660000  1          0.000000   0.000000   0.000000  
1644             52.770000  1          0.000000   0.000000   0.000000  
1646             51.470000  1          0.000000   0.000000   0.000000  
1648             44.120000  1          0.000000   0.000000   0.000000  
1650             88.010000  1          0.000000   0.000000   0.000000  
1652             70.020000  1          0.000000   0.000000   0.000000  
1654             63.630000  1          0.000000   0.000000   0.000000  
1656             71.050000  1          0.000000   0.000000   0.000000  
1658             88.910000  1          0.000000   0.000000   0.000000  
166              109.070000 1          0.000000   0.000000   0.000000  
1660             88.040000  1          0.000000   0.000000   0.000000  
1662             83.870000  1          0.000000   0.000000   0.000000  
1664             74.280000  1          0.000000   0.000000   0.000000  
1666             64.690000  1          0.000000   0.000000   0.000000  
1668             55.000000  1          0.000000   0.000000   0.000000  
1670             47.700000  1          0.000000   0.000000   0.000000  
1672             42.660000  1          0.000000   0.000000   0.000000  
1674             39.980000  1          0.000000   0.000000   0.000000  
1676             26.200000  1          0.000000   0.000000   0.000000  
1678             25.430000  1          0.000000   0.000000   0.000000  
168              111.400000 1          0.000000   0.000000   0.000000  
1680             25.230000  1          0.000000   0.000000   0.000000  
1682             41.880000  1          0.000000   0.000000   0.000000  
; MISSING MH 15
1686             86.380000  1          0.000000   0.000000   0.000000  
1688             75.000000  1          0.000000   0.000000   0.000000  
1690             52.100000  1          0.000000   0.000000   0.000000  
1692             77.000000  1          0.000000   0.000000   0.000000  
1694             60.900000  1          0.000000   0.000000   0.000000  
1696             44.000000  1          0.000000   0.000000   0.000000  
1698             85.000000  1          0.000000   0.000000   0.000000  
170              113.090000 1          0.000000   0.000000   0.000000  
1700             39.700000  1          0.000000   0.000000   0.000000  
1702             91.900000  1          0.000000   0.000000   0.000000  
1706             109.000000 1          0.000000   0.000000   0.000000  
1708             103.900000 1          0.000000   0.000000   0.000000  
1710             91.500000  1          0.000000   0.000000   0.000000  
1712             85.400000  1          0.000000   0.000000   0.000000  
1714             79.000000  1          0.000000   0.000000   0.000000  
1716             98.200000  1          0.000000   0.000000   0.000000  
1718             96.200000  1          0.000000   0.000000   0.000000  
172              123.180000 1          0.000000   0.000000   0.000000  
1720             90.000000  1          0.000000   0.000000   0.000000  