[TITLE]
;;Project Title/Notes

[OPTIONS]
;;Option             Value
FLOW_UNITS           CFS
INFILTRATION         CURVE_NUMBER
FLOW_ROUTING         DYNWAVE
LINK_OFFSETS         DEPTH
MIN_SLOPE            0
ALLOW_PONDING        YES
SKIP_STEADY_STATE    NO

IGNORE_SNOWMELT      YES
IGNORE_GROUNDWATER   YES
IGNORE_QUALITY       YES
START_DATE           01/01/2016
START_TIME           00:00:00
REPORT_START_DATE    01/01/2016
REPORT_START_TIME    00:00:00
END_DATE             01/03/2016
END_TIME             00:00:00
SWEEP_START          01/01
SWEEP_END            12/31
DRY_DAYS             5.000000
REPORT_STEP          00:05:00
WET_STEP             00:01:00
DRY_STEP             00:06:00
ROUTING_STEP         0:00:05 

INERTIAL_DAMPING     NONE
NORMAL_FLOW_LIMITED  BOTH
FORCE_MAIN_EQUATION  H-W
VARIABLE_STEP        0.75
LENGTHENING_STEP     5
MIN_SURFAREA         12.557
MAX_TRIALS           8
HEAD_TOLERANCE       0.001000
SYS_FLOW_TOL         5
LAT_FLOW_TOL         5
MINIMUM_STEP         0
THREADS              1

[EVAPORATION]
;;Data Source    Parameters
;;-------------- ----------------
CONSTANT         0.075000
DRY_ONLY         NO

[RAINGAGES]
;;Name           Format    Interval SCF      Source    
;;-------------- --------- ------ ------ ----------
; New Raingage
RAINGAGE-3       CUMULATIVE 0.100000 1.000000 TIMESERIES NEW_HOPE_100YR  

[SUBCATCHMENTS]
;;Name           Rain Gage        Outlet           Area     %Imperv  Width    %Slope   CurbLen  SnowPack        
;;-------------- ---------------- ---------------- -------- -------- -------- -------- -------- ----------------
ST1_1            RAINGAGE-3       ST1?             2.420000 58.000000 1.000000 1.000000 0.000000                 
ST2325_1         RAINGAGE-3       ST2325           2.498000 43.000000 1.000000 1.000000 0.000000                 
ST2327_1         RAINGAGE-3       ST2327           3.735000 43.000000 1.000000 1.000000 0.000000                 
ST2336_1         RAINGAGE-3       ST2336           6.937000 12.000000 1.000000 1.000000 0.000000                 
ST2337_1         RAINGAGE-3       ST2337           0.886000 22.000000 270.000000 0.040000 0.000000                 
ST2338_1         RAINGAGE-3       ST2338           0.478000 46.000000 1.000000 1.000000 0.000000                 
ST2339_1         RAINGAGE-3       ST2339           1.625000 53.000000 1.000000 1.000000 0.000000                 
ST2368_1         RAINGAGE-3       ST2368           1.733000 42.000000 1.000000 1.000000 0.000000                 
ST2369_1         RAINGAGE-3       ST2369           1.036000 54.000000 1.000000 1.000000 0.000000                 
ST2_1            RAINGAGE-3       ST2?             2.398000 57.000000 1.000000 1.000000 0.000000                 
ST366_1          RAINGAGE-3       ST366            2.543000 22.000000 1.000000 1.000000 0.000000                 
ST_2367_1        RAINGAGE-3       ST2367           0.783000 45.000000 1.000000 1.000000 0.000000                 

[SUBAREAS]
;;Subcatchment   N-Imperv   N-Perv     S-Imperv   S-Perv     PctZero    RouteTo    PctRouted 
;;-------------- ---------- ---------- ---------- ---------- ---------- ---------- ----------
ST1_1            0.100000   0.001000   0.050000   0.050000   25.000000  OUTLET    
ST2325_1         0.100000   0.001000   0.050000   0.050000   25.000000  OUTLET    
ST2327_1         0.100000   0.001000   0.050000   0.050000   25.000000  OUTLET    
ST2336_1         0.100000   0.001000   0.050000   0.050000   25.000000  OUTLET    
ST2337_1         0.100000   0.001000   0.050000   0.050000   25.000000  OUTLET    
ST2338_1         0.100000   0.001000   0.050000   0.050000   25.000000  OUTLET    
ST2339_1         0.100000   0.001000   0.050000   0.050000   25.000000  OUTLET    
ST2368_1         0.100000   0.001000   0.050000   0.050000   25.000000  OUTLET    
ST2369_1         0.100000   0.001000   0.050000   0.050000   25.000000  OUTLET    
ST2_1            0.100000   0.001000   0.050000   0.050000   25.000000  OUTLET    
ST366_1          0.100000   0.001000   0.050000   0.050000   25.000000  OUTLET    
ST_2367_1        0.100000   0.001000   0.050000   0.050000   25.000000  OUTLET    

[INFILTRATION]
;;Subcatchment   CurveNum              DryTime   
;;-------------- ---------- ---------- ----------
ST1_1            75.637800  1.000000   0.001000  
ST2325_1         77.071500  1.000000   0.001000  
ST2327_1         74.301300  1.000000   0.001000  
ST2336_1         66.549600  1.000000   0.001000  
ST2337_1         70.534800  1.000000   0.001000  
ST2338_1         74.568600  1.000000   0.001000  
ST2339_1         75.192300  1.000000   0.001000  
ST2368_1         74.212200  1.000000   0.001000  
ST2369_1         75.281400  1.000000   0.001000  
ST2_1            75.548700  1.000000   0.001000  
ST366_1          70.534800  1.000000   0.001000  
ST_2367_1        74.479500  1.000000   0.001000  

[JUNCTIONS]
;;Name           Elevation  MaxDepth   InitDepth  SurDepth   Aponded   
;;-------------- ---------- ---------- ---------- ---------- ----------
ST1?             897.020000 2.190000   0.000000   0.000000   1000.000000
ST2325           895.910000 5.290000   0.000000   0.000000   1000.000000
ST2326           893.580000 7.620000   0.000000   0.000000   1000.000000
ST2327           897.170000 4.030000   0.000000   0.000000   1000.000000
ST2328           896.170000 5.030000   0.000000   0.000000   1000.000000
ST2337           888.040000 3.460000   0.000000   0.000000   1000.000000
ST2338           894.900000 3.100000   0.000000   0.000000   1000.000000
ST2339           894.200000 3.820000   0.000000   0.000000   1000.000000
ST2367           892.800000 3.300000   0.000000   0.000000   1000.000000
ST2368           893.100000 3.000000   0.000000   0.000000   1000.000000
ST2369           884.860000 10.940000  0.000000   0.000000   1000.000000
ST2428           887.250000 10.850000  0.000000   0.000000   1000.000000
ST2429           893.100000 7.200000   0.000000   0.000000   1000.000000
ST2430           885.610000 11.490000  0.000000   0.000000   1000.000000
ST2439           884.900000 11.400000  0.000000   0.000000   1000.000000
ST2?             896.730000 2.390000   0.000000   0.000000   1000.000000
ST366            895.700000 4.910000   0.000000   0.000000   1000.000000

[OUTFALLS]
;;Name           Elevation  Type       Stage Data       Gated    Route To        
;;-------------- ---------- ---------- ---------------- -------- ----------------
ST634            884.190000 FREE                        NO                       

[STORAGE]
;;Name           Elev.    MaxDepth   InitDepth  Shape      Curve Name/Params            N/A      Fevap    Psi      Ksat     IMD     
;;-------------- -------- ---------- ----------- ---------- ---------------------------- -------- --------          -------- --------
ST2336           888.050000 3.950000   0.000000   TABULAR    ST2336_ST                    0.000000 0.000000

[CONDUITS]
;;Name           From Node        To Node          Length     Roughness  InOffset   OutOffset  InitFlow   MaxFlow   
;;-------------- ---------------- ---------------- ---------- ---------- ---------- ---------- ---------- ----------
334.1            ST2336           ST2337           5.000000   0.013000   0.000000   0.000000   0.000000   0.000000  
LINK103          ST1?             ST2?             30.500000  0.013000   0.000000   0.030000   0.000000   0.000000  
STP1952          ST2326           ST2336           162.000000 0.013000   0.000000   2.210000   0.000000   0.000000  
STP1953          ST2328           ST2326           34.500000  0.013000   0.000000   0.010000   0.000000   0.000000  
STP2144          ST2339           ST2428           26.000000  0.013000   0.000000   4.850000   0.000000   0.000000  
STP2145          ST2338           ST2428           8.000000   0.013000   0.000000   4.850000   0.000000   0.000000  
STP2146          ST2367           ST2439           12.000000  0.013000   0.000000   5.700000   0.000000   0.000000  
STP2147          ST2368           ST2439           30.000000  0.013000   0.000000   4.300000   0.000000   0.000000  
STP2148          ST2369           ST634            120.000000 0.013000   0.000000   0.000000   0.000000   0.000000  
STP2149          ST2439           ST2369           35.000000  0.013000   0.000000   0.000000   0.000000   0.000000  
STP2150          ST2430           ST2439           117.000000 0.013000   0.000000   0.230000   0.000000   0.000000  
STP2153          ST2429           ST2430           167.000000 0.013000   0.000000   0.310000   0.000000   0.000000  
STP2154          ST2428           ST2430           76.000000  0.013000   0.000000   0.200000   0.000000   0.000000  
STP510           ST2?             ST366            126.500000 0.013000   0.000000   0.000000   0.000000   0.000000  
STP511           ST366            ST2429           10.000000  0.013000   0.000000   1.800000   0.000000   0.000000  
STP512           ST2325           ST2326           10.500000  0.013000   0.000000   0.660000   0.000000   0.000000  
STP513           ST2327           ST2328           11.500000  0.013000   0.000000   0.140000   0.000000   0.000000  
STP514           ST2337           ST2428           262.600000 0.013000   0.000000   0.000000   0.000000   0.000000  

[ORIFICES]
;;Name           From Node        To Node          Type         Offset     Qcoeff     Gated    CloseTime 
;;-------------- ---------------- ---------------- ------------ ---------- ---------- -------- ----------
INLET            ST2336           ST2337           BOTTOM       -888.050000 1.000000   NO       0         

[XSECTIONS]
;;Link           Shape        Geom1            Geom2      Geom3      Geom4      Barrels    Culvert   
;;-------------- ------------ ---------------- ---------- ---------- ---------- ---------- ----------
334.1            CIRCULAR     1.750000         1.750000   0.000000   0.000000   1          0         
LINK103          CIRCULAR     1.000000         1.000000   0.000000   0.000000   1          0         
STP1952          CIRCULAR     1.500000         1.500000   0.000000   0.000000   1          0         
STP1953          CIRCULAR     1.500000         1.500000   0.000000   0.000000   1          0         
STP2144          CIRCULAR     1.000000         1.000000   0.000000   0.000000   1          0         
STP2145          CIRCULAR     1.000000         1.000000   0.000000   0.000000   1          0         
STP2146          CIRCULAR     1.000000         1.000000   0.000000   0.000000   1          0         
STP2147          CIRCULAR     1.000000         1.000000   0.000000   0.000000   1          0         
STP2148          CIRCULAR     2.500000         2.500000   0.000000   0.000000   1          0         
STP2149          CIRCULAR     2.500000         2.500000   0.000000   0.000000   1          0         
STP2150          CIRCULAR     2.000000         2.000000   0.000000   0.000000   1          0         
STP2153          CIRCULAR     1.500000         1.500000   0.000000   0.000000   1          0         
STP2154          CIRCULAR     1.750000         1.750000   0.000000   0.000000   1          0         
STP510           CIRCULAR     1.000000         1.000000   0.000000   0.000000   1          0         
STP511           CIRCULAR     1.500000         1.500000   0.000000   0.000000   1          0         
STP512           CIRCULAR     1.250000         1.250000   0.000000   0.000000   1          0         
STP513           CIRCULAR     1.250000         1.250000   0.000000   0.000000   1          0         
STP514           CIRCULAR     1.750000         1.750000   0.000000   0.000000   1          0         
INLET            CIRCULAR     1.999490         0          0          0

[LOSSES]
;;Link           Kentry     Kexit      Kavg       Flap Gate  Seepage   
;;-------------- ---------- ---------- ---------- ---------- ----------
334.1            0.000000   0.000000   0.000000   NO         0.000000  
LINK103          0.000000   0.000000   0.000000   NO         0.000000  
STP1952          0.000000   0.000000   0.000000   NO         0.000000  
STP1953          0.000000   0.000000   0.000000   NO         0.000000  
STP2144          0.000000   0.000000   0.000000   NO         0.000000  
STP2145          0.000000   0.000000   0.000000   NO         0.000000  
STP2146          0.000000   0.000000   0.000000   NO         0.000000  
STP2147          0.000000   0.000000   0.000000   NO         0.000000  
STP2148          0.000000   0.000000   0.000000   NO         0.000000  
STP2149          0.000000   0.000000   0.000000   NO         0.000000  
STP2150          0.000000   0.000000   0.000000   NO         0.000000  
STP2153          0.000000   0.000000   0.000000   NO         0.000000  
STP2154          0.000000   0.000000   0.000000   NO         0.000000  
STP510           0.000000   0.000000   0.000000   NO         0.000000  
STP511           0.000000   0.000000   0.000000   NO         0.000000  
STP512           0.000000   0.000000   0.000000   NO         0.000000  
STP513           0.000000   0.000000   0.000000   NO         0.000000  
STP514           0.000000   0.000000   0.000000   NO         0.000000  

[CONTROLS]


[CURVES]
;;Name           Type       X-Value    Y-Value   
;;-------------- ---------- ---------- ----------
ST2336_ST        STORAGE    0.000000   52272.000000
ST2336_ST                   2.000000   87120.000000
ST2336_ST                   4.000000   148104.000000

[TIMESERIES]
;;Name           Date       Time       Value     
;;-------------- ---------- ---------- ----------
NEW_HOPE_2YR                0.000000   0.000766  
NEW_HOPE_2YR                0.100000   0.001593  
NEW_HOPE_2YR                0.200000   0.002471  
NEW_HOPE_2YR                0.300000   0.003415  
NEW_HOPE_2YR                0.400000   0.004391  
NEW_HOPE_2YR                0.500000   0.005453  
NEW_HOPE_2YR                0.600000   0.006572  
NEW_HOPE_2YR                0.700000   0.007720  
NEW_HOPE_2YR                0.800000   0.008954  
NEW_HOPE_2YR                0.900000   0.010217  
NEW_HOPE_2YR                1.000000   0.011566  
NEW_HOPE_2YR                1.100000   0.012944  
NEW_HOPE_2YR                1.200000   0.014379  
NEW_HOPE_2YR                1.300000   0.015900  
NEW_HOPE_2YR                1.400000   0.017450  
NEW_HOPE_2YR                1.500000   0.019085  
NEW_HOPE_2YR                1.600000   0.020750  
NEW_HOPE_2YR                1.700000   0.022472  
NEW_HOPE_2YR                1.800000   0.024251  
NEW_HOPE_2YR                1.900000   0.026117  
NEW_HOPE_2YR                2.000000   0.028011  
NEW_HOPE_2YR                2.100000   0.029963  
NEW_HOPE_2YR                2.200000   0.031972  
NEW_HOPE_2YR                2.300000   0.034038  
NEW_HOPE_2YR                2.400000   0.036162  
NEW_HOPE_2YR                2.500000   0.038343  
NEW_HOPE_2YR                2.600000   0.040582  
NEW_HOPE_2YR                2.700000   0.042878  
NEW_HOPE_2YR                2.800000   0.045231  
NEW_HOPE_2YR                2.900000   0.047642  
NEW_HOPE_2YR                3.000000   0.048000  
NEW_HOPE_2YR                3.100000   0.050000  
NEW_HOPE_2YR                3.200000   0.053000  
NEW_HOPE_2YR                3.300000   0.055000  
NEW_HOPE_2YR                3.400000   0.058000  
NEW_HOPE_2YR                3.500000   0.061000  
NEW_HOPE_2YR                3.600000   0.063000  
NEW_HOPE_2YR                3.700000   0.066000  
NEW_HOPE_2YR                3.800000   0.069000  
NEW_HOPE_2YR                3.900000   0.072000  
NEW_HOPE_2YR                4.000000   0.075000  
NEW_HOPE_2YR                4.100000   0.078000  
NEW_HOPE_2YR                4.200000   0.081000  
NEW_HOPE_2YR                4.300000   0.084000  
NEW_HOPE_2YR                4.400000   0.087000  
NEW_HOPE_2YR                4.500000   0.091000  
NEW_HOPE_2YR                4.600000   0.094000  
NEW_HOPE_2YR                4.700000   0.097000  
NEW_HOPE_2YR                4.800000   0.101000  
NEW_HOPE_2YR                4.900000   0.104000  
NEW_HOPE_2YR                5.000000   0.108000  
NEW_HOPE_2YR                5.100000   0.111000  
NEW_HOPE_2YR                5.200000   0.115000  
NEW_HOPE_2YR                5.300000   0.119000  
NEW_HOPE_2YR                5.400000   0.122000  
NEW_HOPE_2YR                5.500000   0.126000  
NEW_HOPE_2YR                5.600000   0.130000  
NEW_HOPE_2YR                5.700000   0.134000  
NEW_HOPE_2YR                5.800000   0.138000  
NEW_HOPE_2YR                5.900000   0.142000  
NEW_HOPE_2YR                6.000000   0.146000  
NEW_HOPE_2YR                6.100000   0.150000  
NEW_HOPE_2YR                6.200000   0.155000  
NEW_HOPE_2YR                6.300000   0.159000  
NEW_HOPE_2YR                6.400000   0.163000  
NEW_HOPE_2YR                6.500000   0.168000  
NEW_HOPE_2YR                6.600000   0.172000  
NEW_HOPE_2YR                6.700000   0.177000  
NEW_HOPE_2YR                6.800000   0.181000  
NEW_HOPE_2YR                6.900000   0.186000  
NEW_HOPE_2YR                7.000000   0.190000  
NEW_HOPE_2YR                7.100000   0.195000  
NEW_HOPE_2YR                7.200000   0.200000  
NEW_HOPE_2YR                7.300000   0.205000  
NEW_HOPE_2YR                7.400000   0.210000  
NEW_HOPE_2YR                7.500000   0.215000  
NEW_HOPE_2YR                7.600000   0.220000  
NEW_HOPE_2YR                7.700000   0.225000  
NEW_HOPE_2YR                7.800000   0.230000  
NEW_HOPE_2YR                7.900000   0.235000  
NEW_HOPE_2YR                8.000000   0.240000  
NEW_HOPE_2YR                8.100000   0.246000  
NEW_HOPE_2YR                8.200000   0.251000  
NEW_HOPE_2YR                8.300000   0.256000  
NEW_HOPE_2YR                8.400000   0.262000  
NEW_HOPE_2YR                8.500000   0.267000  
NEW_HOPE_2YR                8.600000   0.273000  
NEW_HOPE_2YR                8.700000   0.279000  
NEW_HOPE_2YR                8.800000   0.284000  
NEW_HOPE_2YR                8.900000   0.290000  
NEW_HOPE_2YR                9.000000   0.296000  
NEW_HOPE_2YR                9.100000   0.305000  
NEW_HOPE_2YR                9.200000   0.314000  
NEW_HOPE_2YR                9.300000   0.324000  
NEW_HOPE_2YR                9.400000   0.334000  
NEW_HOPE_2YR                9.500000   0.343000  
NEW_HOPE_2YR                9.600000   0.353000  
NEW_HOPE_2YR                9.700000   0.363000  
NEW_HOPE_2YR                9.800000   0.374000  
NEW_HOPE_2YR                9.900000   0.384000  
NEW_HOPE_2YR                10.000000  0.394000  
NEW_HOPE_2YR                10.100000  0.405000  
NEW_HOPE_2YR                10.200000  0.416000  
NEW_HOPE_2YR                10.300000  0.427000  
NEW_HOPE_2YR                10.400000  0.438000  
NEW_HOPE_2YR                10.500000  0.449000  
NEW_HOPE_2YR                10.600000  0.465000  
NEW_HOPE_2YR                10.700000  0.484000  
NEW_HOPE_2YR                10.800000  0.505000  
NEW_HOPE_2YR                10.900000  0.528000  
NEW_HOPE_2YR                11.000000  0.553000  
NEW_HOPE_2YR                11.100000  0.580000  
NEW_HOPE_2YR                11.200000  0.610000  
NEW_HOPE_2YR                11.300000  0.642000  
NEW_HOPE_2YR                11.400000  0.676000  
NEW_HOPE_2YR                11.500000  0.712000  
NEW_HOPE_2YR                11.600000  0.764000  
NEW_HOPE_2YR                11.700000  0.834000  
NEW_HOPE_2YR                11.800000  0.931000  
NEW_HOPE_2YR                11.900000  1.069000  
NEW_HOPE_2YR                12.000000  1.328000  
NEW_HOPE_2YR                12.100000  1.801000  
NEW_HOPE_2YR                12.200000  1.939000  
NEW_HOPE_2YR                12.300000  2.036000  
NEW_HOPE_2YR                12.400000  2.106000  
NEW_HOPE_2YR                12.500000  2.158000  
NEW_HOPE_2YR                12.600000  2.194000  
NEW_HOPE_2YR                12.700000  2.228000  
NEW_HOPE_2YR                12.800000  2.260000  
NEW_HOPE_2YR                12.900000  2.290000  
NEW_HOPE_2YR                13.000000  2.317000  
NEW_HOPE_2YR                13.100000  2.342000  
NEW_HOPE_2YR                13.200000  2.365000  
NEW_HOPE_2YR                13.300000  2.386000  
NEW_HOPE_2YR                13.400000  2.405000  
NEW_HOPE_2YR                13.500000  2.421000  
NEW_HOPE_2YR                13.600000  2.432000  
NEW_HOPE_2YR                13.700000  2.443000  
NEW_HOPE_2YR                13.800000  2.454000  
NEW_HOPE_2YR                13.900000  2.465000  
NEW_HOPE_2YR                14.000000  2.476000  
NEW_HOPE_2YR                14.100000  2.486000  
NEW_HOPE_2YR                14.200000  2.496000  
NEW_HOPE_2YR                14.300000  2.507000  
NEW_HOPE_2YR                14.400000  2.517000  
NEW_HOPE_2YR                14.500000  2.527000  
NEW_HOPE_2YR                14.600000  2.536000  
NEW_HOPE_2YR                14.700000  2.546000  
NEW_HOPE_2YR                14.800000  2.556000  
NEW_HOPE_2YR                14.900000  2.565000  
NEW_HOPE_2YR                15.000000  2.574000  
NEW_HOPE_2YR                15.100000  2.580000  
NEW_HOPE_2YR                15.200000  2.586000  
NEW_HOPE_2YR                15.300000  2.591000  
NEW_HOPE_2YR                15.400000  2.597000  
NEW_HOPE_2YR                15.500000  2.603000  
NEW_HOPE_2YR                15.600000  2.608000  
NEW_HOPE_2YR                15.700000  2.614000  
NEW_HOPE_2YR                15.800000  2.619000  
NEW_HOPE_2YR                15.900000  2.624000  
NEW_HOPE_2YR                16.000000  2.630000  
NEW_HOPE_2YR                16.100000  2.635000  
NEW_HOPE_2YR                16.200000  2.640000  
NEW_HOPE_2YR                16.300000  2.645000  
NEW_HOPE_2YR                16.400000  2.650000  
NEW_HOPE_2YR                16.500000  2.655000  
NEW_HOPE_2YR                16.600000  2.660000  
NEW_HOPE_2YR                16.700000  2.665000  
NEW_HOPE_2YR                16.800000  2.670000  
NEW_HOPE_2YR                16.900000  2.675000  
NEW_HOPE_2YR                17.000000  2.680000  
NEW_HOPE_2YR                17.100000  2.684000  
NEW_HOPE_2YR                17.200000  2.689000  
NEW_HOPE_2YR                17.300000  2.693000  
NEW_HOPE_2YR                17.400000  2.698000  
NEW_HOPE_2YR                17.500000  2.702000  
NEW_HOPE_2YR                17.600000  2.707000  
NEW_HOPE_2YR                17.700000  2.711000  
NEW_HOPE_2YR                17.800000  2.715000  
NEW_HOPE_2YR                17.900000  2.720000  
NEW_HOPE_2YR                18.000000  2.724000  
NEW_HOPE_2YR                18.100000  2.728000  
NEW_HOPE_2YR                18.200000  2.732000  
NEW_HOPE_2YR                18.300000  2.736000  
NEW_HOPE_2YR                18.400000  2.740000  
NEW_HOPE_2YR                18.500000  2.744000  
NEW_HOPE_2YR                18.600000  2.748000  
NEW_HOPE_2YR                18.700000  2.751000  
NEW_HOPE_2YR                18.800000  2.755000  
NEW_HOPE_2YR                18.900000  2.759000  
NEW_HOPE_2YR                19.000000  2.762000  
NEW_HOPE_2YR                19.100000  2.766000  
NEW_HOPE_2YR                19.200000  2.769000  
NEW_HOPE_2YR                19.300000  2.773000  
NEW_HOPE_2YR                19.400000  2.776000  
NEW_HOPE_2YR                19.500000  2.779000  
NEW_HOPE_2YR                19.600000  2.783000  
NEW_HOPE_2YR                19.700000  2.786000  
NEW_HOPE_2YR                19.800000  2.789000  
NEW_HOPE_2YR                19.900000  2.792000  
NEW_HOPE_2YR                20.000000  2.795000  
NEW_HOPE_2YR                20.100000  2.798000  
NEW_HOPE_2YR                20.200000  2.801000  
NEW_HOPE_2YR                20.300000  2.804000  
NEW_HOPE_2YR                20.400000  2.807000  
NEW_HOPE_2YR                20.500000  2.809000  
NEW_HOPE_2YR                20.600000  2.812000  
NEW_HOPE_2YR                20.700000  2.815000  
NEW_HOPE_2YR                20.800000  2.817000  
NEW_HOPE_2YR                20.900000  2.820000  
NEW_HOPE_2YR                21.000000  2.822000  
NEW_HOPE_2YR                21.100000  2.825000  
NEW_HOPE_2YR                21.200000  2.827000  
NEW_HOPE_2YR                21.300000  2.829000  
NEW_HOPE_2YR                21.400000  2.832000  
NEW_HOPE_2YR                21.500000  2.834000  
NEW_HOPE_2YR                21.600000  2.836000  
NEW_HOPE_2YR                21.700000  2.838000  
NEW_HOPE_2YR                21.800000  2.840000  
NEW_HOPE_2YR                21.900000  2.842000  
NEW_HOPE_2YR                22.000000  2.844000  
NEW_HOPE_2YR                22.100000  2.846000  
NEW_HOPE_2YR                22.200000  2.848000  
NEW_HOPE_2YR                22.300000  2.849000  
NEW_HOPE_2YR                22.400000  2.851000  
NEW_HOPE_2YR                22.500000  2.853000  
NEW_HOPE_2YR                22.600000  2.854000  
NEW_HOPE_2YR                22.700000  2.856000  
NEW_HOPE_2YR                22.800000  2.857000  
NEW_HOPE_2YR                22.900000  2.858000  
NEW_HOPE_2YR                23.000000  2.860000  
NEW_HOPE_2YR                23.100000  2.861000  
NEW_HOPE_2YR                23.200000  2.862000  
NEW_HOPE_2YR                23.300000  2.863000  
NEW_HOPE_2YR                23.400000  2.865000  
NEW_HOPE_2YR                23.500000  2.866000  
NEW_HOPE_2YR                23.600000  2.867000  
NEW_HOPE_2YR                23.700000  2.868000  
NEW_HOPE_2YR                23.800000  2.868000  
NEW_HOPE_2YR                23.900000  2.869000  
NEW_HOPE_2YR                24.000000  2.870000  
;
NEW_HOPE_10YR               0.000000   0.000000  
NEW_HOPE_10YR               0.100000   0.001495  
NEW_HOPE_10YR               0.200000   0.002990  
NEW_HOPE_10YR               0.300000   0.002990  
NEW_HOPE_10YR               0.400000   0.004484  
NEW_HOPE_10YR               0.500000   0.005979  
NEW_HOPE_10YR               0.600000   0.007474  
NEW_HOPE_10YR               0.700000   0.010463  
NEW_HOPE_10YR               0.800000   0.011958  
NEW_HOPE_10YR               0.900000   0.013453  
NEW_HOPE_10YR               1.000000   0.014948  
NEW_HOPE_10YR               1.100000   0.017937  
NEW_HOPE_10YR               1.200000   0.019432  
NEW_HOPE_10YR               1.300000   0.020927  
NEW_HOPE_10YR               1.400000   0.023916  
NEW_HOPE_10YR               1.500000   0.025411  
NEW_HOPE_10YR               1.600000   0.028401  
NEW_HOPE_10YR               1.700000   0.031390  
NEW_HOPE_10YR               1.800000   0.032885  
NEW_HOPE_10YR               1.900000   0.035875  
NEW_HOPE_10YR               2.000000   0.038864  
NEW_HOPE_10YR               2.100000   0.041854  
NEW_HOPE_10YR               2.200000   0.044843  
NEW_HOPE_10YR               2.300000   0.047833  
NEW_HOPE_10YR               2.400000   0.050822  
NEW_HOPE_10YR               2.500000   0.053812  
NEW_HOPE_10YR               2.600000   0.056801  
NEW_HOPE_10YR               2.700000   0.061286  
NEW_HOPE_10YR               2.800000   0.064275  
NEW_HOPE_10YR               2.900000   0.067265  
NEW_HOPE_10YR               3.000000   0.071749  
NEW_HOPE_10YR               3.100000   0.074739  
NEW_HOPE_10YR               3.200000   0.079223  
NEW_HOPE_10YR               3.300000   0.082213  
NEW_HOPE_10YR               3.400000   0.086697  
NEW_HOPE_10YR               3.500000   0.091181  
NEW_HOPE_10YR               3.600000   0.094171  
NEW_HOPE_10YR               3.700000   0.098655  
NEW_HOPE_10YR               3.800000   0.103139  
NEW_HOPE_10YR               3.900000   0.107624  
NEW_HOPE_10YR               4.000000   0.112108  
NEW_HOPE_10YR               4.100000   0.116592  
NEW_HOPE_10YR               4.200000   0.121077  
NEW_HOPE_10YR               4.300000   0.125561  
NEW_HOPE_10YR               4.400000   0.130045  
NEW_HOPE_10YR               4.500000   0.136024  
NEW_HOPE_10YR               4.600000   0.140509  
NEW_HOPE_10YR               4.700000   0.144993  
NEW_HOPE_10YR               4.800000   0.150972  
NEW_HOPE_10YR               4.900000   0.155456  
NEW_HOPE_10YR               5.000000   0.161436  
NEW_HOPE_10YR               5.100000   0.165920  
NEW_HOPE_10YR               5.200000   0.171899  
NEW_HOPE_10YR               5.300000   0.177878  
NEW_HOPE_10YR               5.400000   0.182362  
NEW_HOPE_10YR               5.500000   0.188341  
NEW_HOPE_10YR               5.600000   0.194321  
NEW_HOPE_10YR               5.700000   0.200300  
NEW_HOPE_10YR               5.800000   0.206279  
NEW_HOPE_10YR               5.900000   0.212258  
NEW_HOPE_10YR               6.000000   0.218237  
NEW_HOPE_10YR               6.100000   0.224216  
NEW_HOPE_10YR               6.200000   0.231690  
NEW_HOPE_10YR               6.300000   0.237669  
NEW_HOPE_10YR               6.400000   0.243648  
NEW_HOPE_10YR               6.500000   0.251122  
NEW_HOPE_10YR               6.600000   0.257101  
NEW_HOPE_10YR               6.700000   0.264575  
NEW_HOPE_10YR               6.800000   0.270554  
NEW_HOPE_10YR               6.900000   0.278028  
NEW_HOPE_10YR               7.000000   0.284007  
NEW_HOPE_10YR               7.100000   0.291481  
NEW_HOPE_10YR               7.200000   0.298955  
NEW_HOPE_10YR               7.300000   0.306429  
NEW_HOPE_10YR               7.400000   0.313902  
NEW_HOPE_10YR               7.500000   0.321376  
NEW_HOPE_10YR               7.600000   0.328850  
NEW_HOPE_10YR               7.700000   0.336324  
NEW_HOPE_10YR               7.800000   0.343798  
NEW_HOPE_10YR               7.900000   0.351272  
NEW_HOPE_10YR               8.000000   0.358746  
NEW_HOPE_10YR               8.100000   0.367714  
NEW_HOPE_10YR               8.200000   0.375188  
NEW_HOPE_10YR               8.300000   0.382662  
NEW_HOPE_10YR               8.400000   0.391631  
NEW_HOPE_10YR               8.500000   0.399105  
NEW_HOPE_10YR               8.600000   0.408073  