[TITLE]
;;Project Title/Notes

[OPTIONS]
;;Option             Value
FLOW_UNITS           MGD
INFILTRATION         HORTON
FLOW_ROUTING         DYNWAVE
LINK_OFFSETS         DEPTH
MIN_SLOPE            0
ALLOW_PONDING        NO
SKIP_STEADY_STATE    NO

IGNORE_RAINFALL      YES
IGNORE_SNOWMELT      YES
IGNORE_GROUNDWATER   YES
IGNORE_QUALITY       YES
START_DATE           03/08/2014
START_TIME           00:00:00
REPORT_START_DATE    03/09/2014
REPORT_START_TIME    00:00:00
END_DATE             03/11/2014
END_TIME             00:00:00
SWEEP_START          01/01
SWEEP_END            12/31
DRY_DAYS             5.000000
REPORT_STEP          00:05:00
WET_STEP             00:05:00
DRY_STEP             00:05:00
ROUTING_STEP         0:00:30 

INERTIAL_DAMPING     PARTIAL
NORMAL_FLOW_LIMITED  BOTH
FORCE_MAIN_EQUATION  H-W
VARIABLE_STEP        1.50
LENGTHENING_STEP     40
MIN_SURFAREA         0
MAX_TRIALS           5
HEAD_TOLERANCE       0.005000
SYS_FLOW_TOL         5
LAT_FLOW_TOL         5
MINIMUM_STEP         0.5
THREADS              1

[EVAPORATION]
;;Data Source    Parameters
;;-------------- ----------------
CONSTANT         0.0
DRY_ONLY         NO

[RAINGAGES]
;;Name           Format    Interval SCF      Source    
;;-------------- --------- ------ ------ ----------
; 10-Year Design Storm Raingage
10_YR_STORM      CUMULATIVE 0.500000 1.000000 TIMESERIES MORNING         

[JUNCTIONS]
;;Name           Elevation  MaxDepth   InitDepth  SurDepth   Aponded   
;;-------------- ---------- ---------- ---------- ---------- ----------
; A2-1
A2-1             3643.379266 9.967657   0.000000   0.000000   0.000000  
; A2-2
A2-2             3644.994488 10.150776  0.000000   0.000000   0.000000  
; A2-20
A2-20            3654.868000 7.050000   0.000000   0.000000   0.000000  
; A2-21
A2-21            3658.058000 2.630000   0.000000   0.000000   0.000000  
; A2-3
A2-3             3646.013679 10.228508  0.000000   0.000000   0.000000  
; A2-4
A2-4             3647.051306 10.391077  0.000000   0.000000   0.000000  
; A2-5
A2-5             3647.226588 10.648167  0.000000   0.000000   0.000000  
; A2-6
A2-6             3653.228000 8.820000   0.000000   0.000000   0.000000  
; A3-10
A3-10            3658.290414 10.616586  0.000000   0.000000   0.000000  
; A3-11
A3-11            3657.733120 9.454880   0.000000   0.000000   0.000000  
; A3-12
A3-12            3660.132813 9.163187   0.000000   0.000000   0.000000  
; A3-13
A3-13            3658.992330 7.785670   0.000000   0.000000   0.000000  
; A3-14
A3-14            3659.199592 10.103408  0.000000   0.000000   0.000000  
; A3-15
A3-15            3657.902857 8.227143   0.000000   0.000000   0.000000  
; A3-16
A3-16            3656.661545 7.488455   0.000000   0.000000   0.000000  
; A3-17
A3-17            3656.144464 8.131536   0.000000   0.000000   0.000000  
; A3-18
A3-18            3658.048170 12.859830  0.000000   0.000000   0.000000  
; A3-19
A3-19            3656.748721 10.874279  0.000000   0.000000   0.000000  
; A3-20
A3-20            3655.490419 9.136581   0.000000   0.000000   0.000000  
; A3-21
A3-21            3655.318000 8.620000   0.000000   0.000000   0.000000  
; Pump Station
A3-23            3659.772040 3.084960   0.000000   0.000000   0.000000  
; A3-24
A3-24            3659.001845 12.213155  0.000000   0.000000   0.000000  
; A3-25
A3-25            3658.045005 9.995995   0.000000   0.000000   0.000000  
; A3-26
A3-26            3657.538000 5.010000   0.000000   0.000000   0.000000  
; A3-27
A3-27            3656.758000 6.130000   0.000000   0.000000   0.000000  
; A3-5
A3-5             3661.381824 9.464176   0.000000   0.000000   0.000000  
; A3-6
A3-6             3660.243293 8.510707   0.000000   0.000000   0.000000  
; A3-7
A3-7             3659.507040 13.047960  0.000000   0.000000   0.000000  
; A3-8
A3-8             3658.982010 12.195990  0.000000   0.000000   0.000000  
; A3-9
A3-9             3659.432669 7.312331   0.000000   0.000000   0.000000  
; B1-10
B1-10            3585.878000 8.160000   0.000000   0.000000   0.000000  
; B1-100
B1-100           3588.163000 13.185000  0.000000   0.000000   0.000000  
; B1-101
B1-101           3590.726088 9.696912   0.000000   0.000000   0.000000  
; B1-102
B1-102           3592.317640 9.235360   0.000000   0.000000   0.000000  
; B1-103
B1-103           3591.975048 9.404952   0.000000   0.000000   0.000000  
; B1-104
B1-104           3590.387640 8.763360   0.000000   0.000000   0.000000  
; B1-105
B1-105           3590.158812 8.464188   0.000000   0.000000   0.000000  
; B1-106
B1-106           3589.116796 8.064204   0.000000   0.000000   0.000000  
; B1-107
B1-107           3588.395084 8.017916   0.000000   0.000000   0.000000  
; B1-108
B1-108           3587.508000 8.810000   0.000000   0.000000   0.000000  
; B1-109
B1-109           3584.444000 15.126000  0.000000   0.000000   0.000000  
; B1-110
B1-110           3586.535000 13.737000  0.000000   0.000000   0.000000  
; B1-111
B1-111           3590.798716 8.759284   0.000000   0.000000   0.000000  
; B1-112
B1-112           3590.262104 8.439896   0.000000   0.000000   0.000000  
; B1-113
B1-113           3589.158756 7.470244   0.000000   0.000000   0.000000  
; B1-114
B1-114           3588.832600 7.658400   0.000000   0.000000   0.000000  
; B1-115
B1-115           3600.921107 5.083893   0.000000   0.000000   0.000000  
; B1-116
B1-116           3602.215619 6.060381   0.000000   0.000000   0.000000  
; B1-117
B1-117           3603.503999 6.923001   0.000000   0.000000   0.000000  
; B1-118
B1-118           3604.796639 7.670361   0.000000   0.000000   0.000000  
; B1-119
B1-119           3605.372523 7.416477   0.000000   0.000000   0.000000  
; B1-12
B1-12            3602.878000 6.090000   0.000000   0.000000   0.000000  
; B1-120
B1-120           3602.139299 4.362701   0.000000   0.000000   0.000000  
; B1-121
B1-121           3603.536971 5.093029   0.000000   0.000000   0.000000  
; B1-122
B1-122           3604.936875 6.269125   0.000000   0.000000   0.000000  
; B1-123
B1-123           3606.338251 7.477749   0.000000   0.000000   0.000000  
; B1-124
B1-124           3592.330000 13.979000  0.000000   0.000000   0.000000  
; B1-125
B1-125           3591.562000 14.765000  0.000000   0.000000   0.000000  
; B1-126
B1-126           3593.167000 16.360000  0.000000   0.000000   0.000000  
; B1-127
B1-127           3594.782000 17.740000  0.000000   0.000000   0.000000  
; B1-128
B1-128           3590.428000 16.718000  0.000000   0.000000   0.000000  
; B1-129
B1-129           3590.811000 16.963000  0.000000   0.000000   0.000000  
; B1-13
B1-13            3604.618000 10.990000  0.000000   0.000000   0.000000  
; B1-130
B1-130           3592.420000 18.479000  0.000000   0.000000   0.000000  
; B1-131
B1-131           3594.038000 19.848000  0.000000   0.000000   0.000000  
; B1-132
B1-132           3594.927000 18.309000  0.000000   0.000000   0.000000  
; B1-133
B1-133           3589.516000 19.744000  0.000000   0.000000   0.000000  
; B1-134
B1-134           3590.110000 21.286000  0.000000   0.000000   0.000000  
; B1-135
B1-135           3592.069000 22.523000  0.000000   0.000000   0.000000  
; B1-136
B1-136           3593.029000 23.574000  0.000000   0.000000   0.000000  
; B1-137
B1-137           3589.132000 18.628000  0.000000   0.000000   0.000000  
; B1-138
B1-138           3589.874000 17.602000  0.000000   0.000000   0.000000  
; B1-139
B1-139           3590.610000 18.323000  0.000000   0.000000   0.000000  
; B1-14
B1-14            3606.308000 8.550000   0.000000   0.000000   0.000000  
; B1-140
B1-140           3591.758000 17.437000  0.000000   0.000000   0.000000  
; B1-141
B1-141           3593.155000 19.366000  0.000000   0.000000   0.000000  
; B1-142
B1-142           3594.715000 19.742000  0.000000   0.000000   0.000000  
; B1-143
B1-143           3595.644000 20.918000  0.000000   0.000000   0.000000  
; B1-144
B1-144           3597.690000 19.756000  0.000000   0.000000   0.000000  
; B1-145
B1-145           3592.282000 20.767000  0.000000   0.000000   0.000000  
; B1-146
B1-146           3593.879000 22.304000  0.000000   0.000000   0.000000  
; B1-147
B1-147           3591.734000 16.111000  0.000000   0.000000   0.000000  
; B1-148
B1-148           3593.415000 18.777000  0.000000   0.000000   0.000000  
; B1-149
B1-149           3595.034000 21.239000  0.000000   0.000000   0.000000  
; B1-15
B1-15            3608.888000 11.080000  0.000000   0.000000   0.000000  
; B1-150
B1-150           3592.876000 14.237000  0.000000   0.000000   0.000000  
; B1-151
B1-151           3594.263000 18.165000  0.000000   0.000000   0.000000  
; B1-152
B1-152           3595.138000 20.086000  0.000000   0.000000   0.000000  
; B1-153
B1-153           3596.078000 19.789000  0.000000   0.000000   0.000000  
; B1-154
B1-154           3598.421000 18.406000  0.000000   0.000000   0.000000  
; B1-155
B1-155           3591.046304 9.725696   0.000000   0.000000   0.000000  
; B1-156
B1-156           3591.327000 14.779000  0.000000   0.000000   0.000000  
; B1-157
B1-157           3590.062000 15.775000  0.000000   0.000000   0.000000  
; B1-158
B1-158           3589.715000 15.266000  0.000000   0.000000   0.000000  
; B1-159
B1-159           3588.585000 12.972000  0.000000   0.000000   0.000000  
; B1-16
B1-16            3608.760344 8.836580   0.000000   0.000000   0.000000  
; B1-160
B1-160           3587.424000 12.133000  0.000000   0.000000   0.000000  
; B1-161
B1-161           3586.125000 12.984000  0.000000   0.000000   0.000000  
; B1-162
B1-162           3585.458000 12.233000  0.000000   0.000000   0.000000  
; B1-163
B1-163           3581.921203 15.802430  0.000000   0.000000   0.000000  
; B1-164
B1-164           3588.887000 15.668000  0.000000   0.000000   0.000000  
; B1-165
B1-165           3587.368000 11.204000  0.000000   0.000000   0.000000  
; B1-166
B1-166           3585.975000 10.816000  0.000000   0.000000   0.000000  
; B1-167
B1-167           3585.629000 11.809000  0.000000   0.000000   0.000000  
; B1-168
B1-168           3589.241000 15.447000  0.000000   0.000000   0.000000  
; B1-169
B1-169           3587.704000 10.932000  0.000000   0.000000   0.000000  
; B1-17
B1-17            3595.913143 7.509953   0.000000   0.000000   0.000000  
; B1-170
B1-170           3586.266000 8.670000   0.000000   0.000000   0.000000  
; B1-171
B1-171           3594.429000 11.349000  0.000000   0.000000   0.000000  
; B1-172
B1-172           3593.756000 11.503000  0.000000   0.000000   0.000000  
; B1-173
B1-173           3593.390000 10.992000  0.000000   0.000000   0.000000  
; B1-174
B1-174           3593.030000 10.881000  0.000000   0.000000   0.000000  
; B1-175
B1-175           3591.493000 6.924000   0.000000   0.000000   0.000000  
; B1-176
B1-176           3590.060000 4.507000   0.000000   0.000000   0.000000  
; B1-177
B1-177           3589.718000 4.048000   0.000000   0.000000   0.000000  
; B1-178
B1-178           3589.527000 4.243000   0.000000   0.000000   0.000000  
; B1-179
B1-179           3583.158000 8.409627   0.000000   0.000000   0.000000  
; B1-180
B1-180           3592.942000 8.742000   0.000000   0.000000   0.000000  
; B1-181
B1-181           3591.532000 6.062000   0.000000   0.000000   0.000000  
; B1-182
B1-182           3590.122000 3.851000   0.000000   0.000000   0.000000  
; B1-183
B1-183           3594.785000 25.986000  0.000000   0.000000   0.000000  
; B1-184
B1-184           3607.928060 12.087940  0.000000   0.000000   0.000000  
; B1-185
B1-185           3609.674107 9.717893   0.000000   0.000000   0.000000  
; B1-186
B1-186           3608.133563 7.654437   0.000000   0.000000   0.000000  
; B1-187
B1-187           3608.714155 10.225845  0.000000   0.000000   0.000000  
; B1-188
B1-188           3607.075279 8.174721   0.000000   0.000000   0.000000  
; B1-189
B1-189           3607.005395 10.258605  0.000000   0.000000   0.000000  
; B1-19
B1-19            3580.498000 14.380000  0.000000   0.000000   0.000000  
; B1-190
B1-190           3605.920039 8.923961   0.000000   0.000000   0.000000  
; B1-191
B1-191           3604.878864 9.543136   0.000000   0.000000   0.000000  
; B1-192
B1-192           3606.524760 10.465240  0.000000   0.000000   0.000000  
; B1-193
B1-193           3608.981868 11.108132  0.000000   0.000000   0.000000  
; B1-194
B1-194           3607.631000 8.004498   0.000000   0.000000   0.000000  
; B1-195
B1-195           3610.651900 7.184526   0.000000   0.000000   0.000000  
; B1-196
B1-196           3610.819390 7.385444   0.000000   0.000000   0.000000  
; B1-197
B1-197           3612.432513 9.296979   0.000000   0.000000   0.000000  
; B1-198
B1-198           3613.646678 8.136769   0.000000   0.000000   0.000000  
; B1-2
B1-2             3176.028000 6.620000   0.000000   0.000000   0.000000  
; B1-20
B1-20            3583.966000 12.811000  0.000000   0.000000   0.000000  
; B1-21
B1-21            3585.618000 11.037000  0.000000   0.000000   0.000000  
; B1-22
B1-22            3585.059000 11.804000  0.000000   0.000000   0.000000  
; B1-23
B1-23            3586.471000 1.000000   0.000000   0.000000   0.000000  
; B1-24
B1-24            3586.123000 9.731000   0.000000   0.000000   0.000000  
; B1-25
B1-25            3587.538000 0.731000   0.000000   0.000000   0.000000  
; B1-26
B1-26            3587.192000 7.683000   0.000000   0.000000   0.000000  
; B1-27
B1-27            3588.634000 0.040000   0.000000   0.000000   0.000000  
; B1-28
B1-28            3578.442000 16.687000  0.000000   0.000000   0.000000  
; B1-29
B1-29            3576.668000 17.037000  0.000000   0.000000   0.000000  
; B1-30
B1-30            3181.968000 9.280000   0.000000   0.000000   0.000000  
; B1-32
B1-32            3178.830000 5.895000   0.000000   0.000000   0.000000  
; B1-33
B1-33            3609.228000 9.180000   0.000000   0.000000   0.000000  
; B1-34
B1-34            3609.913343 10.019657  0.000000   0.000000   0.000000  
; B1-35
B1-35            3610.487267 8.723733   0.000000   0.000000   0.000000  
; B1-36
B1-36            3611.777256 7.203744   0.000000   0.000000   0.000000  
; B1-37
B1-37            3607.218000 8.890000   0.000000   0.000000   0.000000  
; B1-38
B1-38            3605.618000 8.660000   0.000000   0.000000   0.000000  
; B1-39
B1-39            3604.008000 8.890000   0.000000   0.000000   0.000000  
; B1-4
B1-4             3579.568000 13.900000  0.000000   0.000000   0.000000  
; B1-40
B1-40            3602.318000 8.050000   0.000000   0.000000   0.000000  
; B1-41
B1-41            3600.748000 8.130000   0.000000   0.000000   0.000000  
; B1-42
B1-42            3599.178000 8.922000   0.000000   0.000000   0.000000  
; B1-43
B1-43            3597.828000 6.750000   0.000000   0.000000   0.000000  
; B1-46
B1-46            3588.139591 8.097409   0.000000   0.000000   0.000000  
; B1-47
B1-47            3579.878000 13.980000  0.000000   0.000000   0.000000  
; B1-48
B1-48            3587.108000 8.790000   0.000000   0.000000   0.000000  
; B1-49
B1-49            3605.125912 11.656088  0.000000   0.000000   0.000000  
; B1-5
B1-5             3580.238000 14.080000  0.000000   0.000000   0.000000  
; B1-50
B1-50            3606.758744 9.283256   0.000000   0.000000   0.000000  
; B1-51
B1-51            3607.826148 9.299852   0.000000   0.000000   0.000000  
; B1-52
B1-52            3608.145960 9.399040   0.000000   0.000000   0.000000  
; B1-53
B1-53            3609.063556 8.788444   0.000000   0.000000   0.000000  
; B1-54
B1-54            3606.306480 12.986520  0.000000   0.000000   0.000000  
; B1-55
B1-55            3607.479820 11.351180  0.000000   0.000000   0.000000  
; B1-56
B1-56            3608.279820 10.219180  0.000000   0.000000   0.000000  
; B1-57
B1-57            3594.823068 16.211932  0.000000   0.000000   0.000000  
; B1-58
B1-58            3593.619388 13.741612  0.000000   0.000000   0.000000  
; B1-59
B1-59            3594.702164 10.514836  0.000000   0.000000   0.000000  
; B1-6
B1-6             3580.858000 14.790000  0.000000   0.000000   0.000000  
; B1-60
B1-60            3592.395024 12.244976  0.000000   0.000000   0.000000  
; B1-61
B1-61            3593.467312 4.960688   0.000000   0.000000   0.000000  
; B1-62
B1-62            3591.191288 11.662712  0.000000   0.000000   0.000000  
; B1-63
B1-63            3592.278920 1.190080   0.000000   0.000000   0.000000  
; B1-64
B1-64            3589.980688 6.892312   0.000000   0.000000   0.000000  
; B1-65
B1-65            3591.013448 2.111552   0.000000   0.000000   0.000000  
; B1-66
B1-66            3589.674900 6.875100   0.000000   0.000000   0.000000  
; B1-67
B1-67            3589.184064 5.641936   0.000000   0.000000   0.000000  
; B1-68
B1-68            3588.268000 9.550000   0.000000   0.000000   0.000000  
; B1-69
B1-69            3604.661635 12.851365  0.000000   0.000000   0.000000  
; B1-7
B1-7             3581.488000 14.860000  0.000000   0.000000   0.000000  
; B1-70
B1-70            3603.855375 11.973625  0.000000   0.000000   0.000000  
; B1-71
B1-71            3602.426599 10.901401  0.000000   0.000000   0.000000  
; B1-72
B1-72            3602.848631 10.166369  0.000000   0.000000   0.000000  
; B1-73
B1-73            3601.680799 9.389201   0.000000   0.000000   0.000000  
; B1-74
B1-74            3601.358935 9.080065   0.000000   0.000000   0.000000  
; B1-75
B1-75            3600.604223 9.803777   0.000000   0.000000   0.000000  
; B1-76
B1-76            3599.758000 8.060000   0.000000   0.000000   0.000000  
; B1-77
B1-77            3606.909171 12.194829  0.000000   0.000000   0.000000  
; B1-78
B1-78            3605.342515 10.552485  0.000000   0.000000   0.000000  
; B1-79
B1-79            3603.732011 8.940989   0.000000   0.000000   0.000000  
; B1-8
B1-8             3582.478000 7.540000   0.000000   0.000000   0.000000  
; B1-80
B1-80            3602.658167 8.925833   0.000000   0.000000   0.000000  
; B1-81
B1-81            3603.743895 10.369105  0.000000   0.000000   0.000000  
; B1-82
B1-82            3601.694475 9.502525   0.000000   0.000000   0.000000  
; B1-83
B1-83            3599.770023 8.885977   0.000000   0.000000   0.000000  
; B1-84
B1-84            3599.281367 8.124633   0.000000   0.000000   0.000000  
; B1-85
B1-85            3598.388000 7.570000   0.000000   0.000000   0.000000  
; B1-86
B1-86            3595.598000 6.070000   0.000000   0.000000   0.000000  
; B1-87
B1-87            3589.618000 8.200000   0.000000   0.000000   0.000000  
; B1-88
B1-88            3590.966000 13.591000  0.000000   0.000000   0.000000  
; B1-89
B1-89            3590.034000 14.347000  0.000000   0.000000   0.000000  
; B1-9
B1-9             3583.808000 8.340000   0.000000   0.000000   0.000000  
; B1-90
B1-90            3589.425000 15.816000  0.000000   0.000000   0.000000  
; B1-91
B1-91            3588.296000 18.480000  0.000000   0.000000   0.000000  
; B1-92
B1-92            3591.366000 11.604000  0.000000   0.000000   0.000000  
; B1-93
B1-93            3590.716000 11.931000  0.000000   0.000000   0.000000  
; B1-94
B1-94            3589.103000 13.720000  0.000000   0.000000   0.000000  
; B1-95
B1-95            3587.521000 16.698000  0.000000   0.000000   0.000000  
; B1-96
B1-96            3586.416000 14.694000  0.000000   0.000000   0.000000  
; B1-97
B1-97            3585.524000 14.759000  0.000000   0.000000   0.000000  
; B1-98
B1-98            3585.179000 14.817000  0.000000   0.000000   0.000000  
; B1-99
B1-99            3589.084000 13.185000  0.000000   0.000000   0.000000  
; B2-1
B2-1             3614.758000 8.240000   0.000000   0.000000   0.000000  
; B2-10
B2-10            3654.138000 7.920000   0.000000   0.000000   0.000000  
; B2-100
B2-100           3635.532072 7.077791   0.000000   0.000000   0.000000  
; B2-101
B2-101           3634.856275 7.592944   0.000000   0.000000   0.000000  
; B2-102
B2-102           3633.490221 8.724623   0.000000   0.000000   0.000000  
; B2-103
B2-103           3631.840000 6.880000   0.000000   0.000000   0.000000  
; B2-104
B2-104           3640.542000 7.986000   0.000000   0.000000   0.000000  
; B2-105
B2-105           3642.137000 11.506000  0.000000   0.000000   0.000000  
; B2-106
B2-106           3643.304000 11.117000  0.000000   0.000000   0.000000  
; B2-107
B2-107           3641.706000 7.235000   0.000000   0.000000   0.000000  
; B2-108
B2-108           3642.713000 10.926000  0.000000   0.000000   0.000000  
; B2-109
B2-109           3642.838000 11.116000  0.000000   0.000000   0.000000  
; B2-11
B2-11            3624.948000 5.000000   0.000000   0.000000   0.000000  
; B2-110
B2-110           3643.922000 10.147000  0.000000   0.000000   0.000000  
; B2-111
B2-111           3644.442000 9.878000   0.000000   0.000000   0.000000  
; B2-112
B2-112           3645.126000 9.623000   0.000000   0.000000   0.000000  
; B2-113
B2-113           3638.226000 8.792000   0.000000   0.000000   0.000000  
; B2-114
B2-114           3645.668824 8.688176   0.000000   0.000000   0.000000  
; B2-115
B2-115           3644.986000 9.259000   0.000000   0.000000   0.000000  
; B2-116
B2-116           3645.613000 8.769000   0.000000   0.000000   0.000000  
; B2-117
B2-117           3637.886433 7.997111   0.000000   0.000000   0.000000  
; B2-118
B2-118           3637.076472 6.424261   0.000000   0.000000   0.000000  
; B2-119
B2-119           3635.468000 5.190000   0.000000   0.000000   0.000000  
; B2-12
B2-12            3625.388000 8.140000   0.000000   0.000000   0.000000  
; B2-120
B2-120           3637.430688 8.106178   0.000000   0.000000   0.000000  
; B2-121
B2-121           3636.625091 9.085602   0.000000   0.000000   0.000000  
; B2-122
B2-122           3635.816581 7.146309   0.000000   0.000000   0.000000  
; B2-123
B2-123           3634.208000 5.180000   0.000000   0.000000   0.000000  
; B2-124
B2-124           3632.988000 5.540000   0.000000   0.000000   0.000000  
; B2-125
B2-125           3632.118000 6.630000   0.000000   0.000000   0.000000  
; B2-126
B2-126           3630.548000 9.100000   0.000000   0.000000   0.000000  
; B2-127
B2-127           3629.463131 9.329350   0.000000   0.000000   0.000000  
; B2-128
B2-128           3627.948000 7.110000   0.000000   0.000000   0.000000  
; B2-129
B2-129           3610.286208 10.353792  0.000000   0.000000   0.000000  
; B2-13
B2-13            3625.521956 5.826044   0.000000   0.000000   0.000000  
; B2-130
B2-130           3611.993600 11.705400  0.000000   0.000000   0.000000  
; B2-131
B2-131           3607.060452 13.730548  0.000000   0.000000   0.000000  
; B2-132
B2-132           3607.593112 14.417888  0.000000   0.000000   0.000000  
; B2-133
B2-133           3608.767144 13.136856  0.000000   0.000000   0.000000  
; B2-134
B2-134           3609.526496 11.786504  0.000000   0.000000   0.000000  
; B2-135
B2-135           3608.763704 15.081296  0.000000   0.000000   0.000000  
; B2-136
B2-136           3610.482788 12.566212  0.000000   0.000000   0.000000  
; B2-137
B2-137           3632.518000 9.630000   0.000000   0.000000   0.000000  
; B2-138
B2-138           3610.636572 16.211428  0.000000   0.000000   0.000000  
; B2-139
B2-139           3609.965432 15.644568  0.000000   0.000000   0.000000  
; B2-14
B2-14            3625.690000 9.950000   0.000000   0.000000   0.000000  
; B2-140
B2-140           3611.157576 13.980424  0.000000   0.000000   0.000000  
; B2-141
B2-141           3612.334944 12.056056  0.000000   0.000000   0.000000  
; B2-142
B2-142           3616.338000 8.740000   0.000000   0.000000   0.000000  
; B2-143
B2-143           3619.228000 6.740000   0.000000   0.000000   0.000000  
; B2-144
B2-144           3620.228000 5.380000   0.000000   0.000000   0.000000  
; B2-145
B2-145           3633.256998 10.897543  0.000000   0.000000   0.000000  
; B2-146
B2-146           3633.810004 9.083795   0.000000   0.000000   0.000000  
; B2-147
B2-147           3634.466840 18.847613  0.000000   0.000000   0.000000  
; B2-148
B2-148           3635.264287 6.997432   0.000000   0.000000   0.000000  
; B2-149
B2-149           3636.426634 4.427858   0.000000   0.000000   0.000000  
; B2-15
B2-15            3628.233810 5.362137   0.000000   0.000000   0.000000  
; B2-150
B2-150           3637.592162 3.942995   0.000000   0.000000   0.000000  
; B2-151
B2-151           3637.960729 4.161585   0.000000   0.000000   0.000000  
; B2-152
B2-152           3638.911841 4.959497   0.000000   0.000000   0.000000  
; B2-153
B2-153           3639.686969 4.793012   0.000000   0.000000   0.000000  
; B2-154
B2-154           3639.934001 6.327473   0.000000   0.000000   0.000000  
; B2-155
B2-155           3641.044743 7.859554   0.000000   0.000000   0.000000  
; B2-156
B2-156           3635.098271 19.157832  0.000000   0.000000   0.000000  
; B2-157
B2-157           3636.027812 18.362568  0.000000   0.000000   0.000000  
; B2-158
B2-158           3637.490011 16.668192  0.000000   0.000000   0.000000  
; B2-159
B2-159           3637.917411 16.120187  0.000000   0.000000   0.000000  
; B2-16
B2-16            3629.357044 5.614391   0.000000   0.000000   0.000000  
; B2-160
B2-160           3635.547733 18.118527  0.000000   0.000000   0.000000  
; B2-161
B2-161           3635.868756 7.191303   0.000000   0.000000   0.000000  
; B2-162
B2-162           3636.525006 6.204975   0.000000   0.000000   0.000000  
; B2-163
B2-163           3637.290344 5.964051   0.000000   0.000000   0.000000  
; B2-164
B2-164           3636.138622 17.992237  0.000000   0.000000   0.000000  
; B2-165
B2-165           3637.743856 16.532755  0.000000   0.000000   0.000000  
; B2-166
B2-166           3638.518638 15.171060  0.000000   0.000000   0.000000  
; B2-167
B2-167           3638.998200 9.584076   0.000000   0.000000   0.000000  
; B2-168
B2-168           3640.084746 5.576875   0.000000   0.000000   0.000000  
; B2-169
B2-169           3639.651951 9.500393   0.000000   0.000000   0.000000  
; B2-17
B2-17            3630.491665 4.985385   0.000000   0.000000   0.000000  
; B2-170
B2-170           3633.081000 9.590000   0.000000   0.000000   0.000000  
; B2-171
B2-171           3634.133000 8.542000   0.000000   0.000000   0.000000  
; B2-172
B2-172           3635.011000 9.728000   0.000000   0.000000   0.000000  
; B2-173
B2-173           3634.691000 11.832000  0.000000   0.000000   0.000000  
; B2-174
B2-174           3635.762000 11.200000  0.000000   0.000000   0.000000  
; B2-175
B2-175           3634.761000 8.609000   0.000000   0.000000   0.000000  
; B2-176
B2-176           3635.931000 11.757000  0.000000   0.000000   0.000000  
; B2-177
B2-177           3640.114067 14.387398  0.000000   0.000000   0.000000  
; B2-178
B2-178           3640.117360 11.427562  0.000000   0.000000   0.000000  
; B2-179
B2-179           3641.765859 12.414316  0.000000   0.000000   0.000000  
; B2-18
B2-18            3631.373245 4.063034   0.000000   0.000000   0.000000  
; B2-180
B2-180           3642.537309 19.520308  0.000000   0.000000   0.000000  
; B2-181
B2-181           3642.794132 17.125302  0.000000   0.000000   0.000000  
; B2-182
B2-182           3641.265669 14.674028  0.000000   0.000000   0.000000  
; B2-183
B2-183           3640.904535 14.562506  0.000000   0.000000   0.000000  
; B2-184
B2-184           3639.695128 14.855653  0.000000   0.000000   0.000000  
; B2-185
B2-185           3641.343918 13.428787  0.000000   0.000000   0.000000  
; B2-186
B2-186           3642.615450 12.549589  0.000000   0.000000   0.000000  
; B2-187
B2-187           3643.461751 10.862956  0.000000   0.000000   0.000000  
; B2-188
B2-188           3640.679541 17.590479  0.000000   0.000000   0.000000  
; B2-189
B2-189           3642.576715 13.842718  0.000000   0.000000   0.000000  
; B2-19
B2-19            3631.140000 9.710000   0.000000   0.000000   0.000000  
; B2-190
B2-190           3644.183191 12.367346  0.000000   0.000000   0.000000  
; B2-191
B2-191           3644.594095 12.308249  0.000000   0.000000   0.000000  
; B2-192
B2-192           3641.802180 25.896062  0.000000   0.000000   0.000000  
; B2-193
B2-193           3642.380025 29.568949  0.000000   0.000000   0.000000  
; B2-194
B2-194           3643.938919 14.538865  0.000000   0.000000   0.000000  
; B2-195
B2-195           3645.496006 13.578945  0.000000   0.000000   0.000000  
; B2-197
B2-197           3642.944254 11.961996  0.000000   0.000000   0.000000  
; B2-198
B2-198           3640.217283 15.765872  0.000000   0.000000   0.000000  
; B2-199
B2-199           3640.901219 17.435940  0.000000   0.000000   0.000000  
; B2-2
B2-2             3615.968000 7.870000   0.000000   0.000000   0.000000  
; B2-20
B2-20            3630.150000 9.920000   0.000000   0.000000   0.000000  
; B2-200
B2-200           3614.274044 12.495956  0.000000   0.000000   0.000000  
; B2-201
B2-201           3613.631192 12.955808  0.000000   0.000000   0.000000  
; B2-202
B2-202           3612.974968 14.066032  0.000000   0.000000   0.000000  
; B2-203
B2-203           3611.273720 16.316280  0.000000   0.000000   0.000000  
; B2-204
B2-204           3612.741548 16.955452  0.000000   0.000000   0.000000  
; B2-205
B2-205           3614.010108 15.614892  0.000000   0.000000   0.000000  
; B2-206
B2-206           3614.809988 14.606012  0.000000   0.000000   0.000000  
; B2-207
B2-207           3614.128980 17.878020  0.000000   0.000000   0.000000  
; B2-208
B2-208           3615.112204 18.837796  0.000000   0.000000   0.000000  
; B2-209
B2-209           3626.056110 8.841890   0.000000   0.000000   0.000000  
; B2-21
B2-21            3633.720000 5.650000   0.000000   0.000000   0.000000  
; B2-212
B2-212           3626.198788 6.739212   0.000000   0.000000   0.000000  
; B2-213
B2-213           3624.609832 7.922168   0.000000   0.000000   0.000000  
; B2-214
B2-214           3621.946495 6.931505   0.000000   0.000000   0.000000  
; B2-215
B2-215           3619.030728 12.895272  0.000000   0.000000   0.000000  
; B2-216