[OPTIONS]
;Option and Files Scenario Set: BASE, Base Simulation Options
FLOW_UNITS		GPM
INFILTRATION		HORTON
FLOW_ROUTING		DYNWAVE
LINK_OFFSETS		DEPTH
MIN_SLOPE		0.000000
ALLOW_PONDING		NO
SKIP_STEADY_STATE 	NO
IGNORE_RAINFALL		NO
IGNORE_SNOWMELT		NO
IGNORE_GROUNDWATER	NO
IGNORE_QUALITY		NO

START_DATE		01/01/2002
START_TIME		00:00
REPORT_START_DATE	01/01/2002
REPORT_START_TIME	00:00
END_DATE		01/02/2002
END_TIME		00:00
SWEEP_START		01/01
SWEEP_END		01/03
DRY_DAYS		5.000000
REPORT_STEP		00:05:00
WET_STEP		01:00:00
DRY_STEP		23:00:00
ROUTING_STEP		300

INERTIAL_DAMPING	NONE
NORMAL_FLOW_LIMITED	SLOPE
FORCE_MAIN_EQUATION	H-W
VARIABLE_STEP		0.750000
LENGTHENING_STEP	0
MIN_SURFAREA		0.000000
MINIMUM_STEP		0.5

TEMPDIR		"C:\H20SWMM"

[FILES]

[RAINGAGES]

[HYDROGRAPHS]

[TEMPERATURE]

[ADJUSTMENTS]

[SUBCATCHMENTS]

[SUBAREAS]

[INFILTRATION]

[AQUIFERS]

[GROUNDWATER]

[GWF]

[SNOWPACKS]

[JUNCTIONS]
; 8.68s, n, e, w, 7.68ne,
10001	5289.832000	8.680000	0.000000	500.000000	0.000000
; 9.55s, n, w,
10002	5287.289000	9.550000	0.000000	500.000000	0.000000
; 9.9s, n,
10003	5285.279000	9.900000	0.000000	500.000000	0.000000
; 10.5e, n, 8.27w,
10004	5283.346000	10.500000	0.000000	500.000000	0.000000
; 9.04s, n, e, w,
10005	5283.889000	9.040000	0.000000	500.000000	0.000000
; 7.01n, s, w,
10006	5285.016000	7.010000	0.000000	500.000000	0.000000
; 5.13n, w,
10007	5285.687000	5.130000	0.000000	500.000000	0.000000
; 8.35e, n, s, w,
10008	5282.617000	8.350000	0.000000	500.000000	0.000000
; 4.78n, s,
10009	5284.254000	4.780000	0.000000	500.000000	0.000000
; 4.47n, s, w,
10010	5284.434000	4.470000	0.000000	500.000000	0.000000
; 3.38n, w,
10011	5285.031000	3.380000	0.000000	500.000000	0.000000
; 3.59s, w,
10012	5284.108000	3.590000	0.000000	500.000000	0.000000
; 4.29s, n, w,
10013	5282.879000	4.290000	0.000000	500.000000	0.000000
; 5.67s, n,
10014	5280.928000	5.670000	0.000000	500.000000	0.000000
; 5.88s, n,
10015	5279.929000	5.880000	0.000000	500.000000	0.000000
; 5.71s, n,
10016	5278.349000	5.710000	0.000000	500.000000	0.000000
; 5.43s, n, 5.09
10017	5276.373000	5.430000	0.000000	500.000000	0.000000
; 3.37s,
10018	5284.903000	3.370000	0.000000	500.000000	0.000000
; 4.49e, n, w,
10019	5283.371000	4.490000	0.000000	500.000000	0.000000
; 3.62e, s, w,
10020	5284.617000	3.620000	0.000000	500.000000	0.000000
; 4.48e, n, w,
10021	5285.150000	4.480000	0.000000	500.000000	0.000000
; 4.71e, s, w, n,
10022	5285.809000	4.710000	0.000000	500.000000	0.000000
; 3.47s, w,
10023	5286.477000	3.470000	0.000000	500.000000	0.000000
; 2.89e, w,
10024	5285.606000	2.890000	0.000000	500.000000	0.000000
; 3.27e, w,
10025	5286.534000	3.270000	0.000000	500.000000	0.000000
; 3.87e, w,
10026	5286.105000	3.870000	0.000000	500.000000	0.000000
; 3.66e, w, n,
10027	5287.879000	3.660000	0.000000	500.000000	0.000000
; 5.1e, s, w, n,
10028	5288.642000	5.100000	0.000000	500.000000	0.000000
; 8.69e, w,
10029	5286.116000	8.690000	0.000000	500.000000	0.000000
; 8.55e, w,
10030	5286.262000	8.550000	0.000000	500.000000	0.000000
; 7.82e, w,
10031	5286.932000	7.820000	0.000000	500.000000	0.000000
10032	5291.404000	7.295000	0.000000	500.000000	0.000000
; 741e, w, 6.93n,
10033	5291.734000	7.410000	0.000000	500.000000	0.000000
10034	5296.916000	6.597000	0.000000	500.000000	0.000000
; 7.98e, w, 7.67s,
10035	5296.513000	7.980000	0.000000	500.000000	0.000000
; 9.07e, s, 8.85sw,
10036	5299.047000	9.070000	0.000000	500.000000	0.000000
; 9.31e, w, 8.99s,
10037	5298.599000	9.310000	0.000000	500.000000	0.000000
; 8.55e, w,
10038	5299.429000	8.550000	0.000000	500.000000	0.000000
10039	5300.185000	8.537000	0.000000	500.000000	0.000000
; 8.85e, w,
10040	5302.325000	8.850000	0.000000	500.000000	0.000000
; 13.17e, w,
10041	5303.459000	13.170000	0.000000	500.000000	0.000000
; 16.27e, w, 15.27s,
10042	5306.424000	16.270000	0.000000	500.000000	0.000000
; 6.59e, w,
10043	5289.491000	6.590000	0.000000	500.000000	0.000000
; 7.23e, w,
10044	5293.696000	7.230000	0.000000	500.000000	0.000000
; 6.96e, w,
10045	5298.664000	6.960000	0.000000	500.000000	0.000000
; 9.25e, s, w, n,
10046	5301.669000	9.250000	0.000000	500.000000	0.000000
; 6.91e, w, n,
10047	5309.845000	6.910000	0.000000	500.000000	0.000000
; 4.19ne, e, w,
10048	5314.184000	4.190000	0.000000	500.000000	0.000000
; 6.67e, w, n,
10049	5315.863000	6.670000	0.000000	500.000000	0.000000
; 8.58e, w,
10050	5290.674000	8.580000	0.000000	500.000000	0.000000
; 8.82e, w, n,
10051	5294.368000	8.820000	0.000000	500.000000	0.000000
; 8.39e, w, 7.83s,
10052	5296.707000	8.390000	0.000000	500.000000	0.000000
; 5.58n, s, w, 3.91e,
10053	5305.119000	5.580000	0.000000	500.000000	0.000000
; 6.46e, w, 6.23n,
10054	5307.663000	6.460000	0.000000	500.000000	0.000000
; 8.75e, s, w, 8.35n,
10055	5312.241000	8.750000	0.000000	500.000000	0.000000
; 8.42e, s, w, n,
10056	5320.509000	8.420000	0.000000	500.000000	0.000000
; 8.29e, w,
10057	5295.943000	8.290000	0.000000	500.000000	0.000000
; 6.06ne, e, s, w,
10058	5304.014000	6.060000	0.000000	500.000000	0.000000
10059	5307.264000	6.601000	0.000000	500.000000	0.000000
; 6.79e, s, w, n,
10060	5308.939000	6.790000	0.000000	500.000000	0.000000
; 6.64e, w, n, 4.08s,
10061	5314.061000	6.640000	0.000000	500.000000	0.000000
10062	5317.013000	11.492000	0.000000	500.000000	0.000000
; 6.65s, n, 6.32w,
10063	5317.320000	6.650000	0.000000	500.000000	0.000000
; 6.65s, n, 6.17e,
10064	5317.633000	6.650000	0.000000	500.000000	0.000000
; 7.17s, n,
10065	5319.688000	7.170000	0.000000	500.000000	0.000000
; 2.55s,
10066	5311.980000	2.550000	0.000000	500.000000	0.000000
; 7.82n, s,
10067	5305.766000	7.820000	0.000000	500.000000	0.000000
; 8.03n, e, s,
10068	5305.474000	8.030000	0.000000	500.000000	0.000000
; 7.03n, e, w,
10069	5302.711000	7.030000	0.000000	500.000000	0.000000
; 7.47n, s, 6.95w,
10070	5300.639000	7.470000	0.000000	500.000000	0.000000
; 6.09n, s, w,
10071	5303.233000	6.090000	0.000000	500.000000	0.000000
; 7.49e, s, 5.79w,
10072	5304.330000	7.490000	0.000000	500.000000	0.000000
; 5.43e, w,
10073	5308.082000	5.430000	0.000000	500.000000	0.000000
; 6.27e, s, w,
10074	5304.184000	6.270000	0.000000	500.000000	0.000000
; 7.61e, s, w,
10075	5304.923000	7.610000	0.000000	500.000000	0.000000
; 7.27e, s, w,
10076	5307.692000	7.270000	0.000000	500.000000	0.000000
; 4.91ne, sw,
10078	5312.655000	4.910000	0.000000	500.000000	0.000000
; 5.99e, w,
152	5363.134000	5.990000	0.000000	500.000000	0.000000
; 6.38e, w, n,
20079	5313.059000	6.380000	0.000000	500.000000	0.000000
; 7.32s, n,
20080	5314.545000	7.320000	0.000000	500.000000	0.000000
; 5.06ne, sw, w,
20081	5310.721000	5.060000	0.000000	500.000000	0.000000
; 4.77e,
20082	5288.891000	4.770000	0.000000	500.000000	0.000000
; 5.79ne, 5.29w,
20083	5279.072000	5.790000	0.000000	500.000000	0.000000
; 6.65e, sw, w, n,
20084	5279.018000	6.650000	0.000000	500.000000	0.000000
; 5.38e, w,
20085	5275.464000	5.380000	0.000000	500.000000	0.000000
; 5.21e, w,
20086	5258.125000	5.210000	0.000000	500.000000	0.000000
; 5.57e, w, 5.33n,
20087	5300.933000	5.570000	0.000000	500.000000	0.000000
; 6.55e, w, n,
20088	5297.762000	6.550000	0.000000	500.000000	0.000000
; 6.55e, w, n,
20089	5295.174000	6.550000	0.000000	500.000000	0.000000
; 6.67e, w,
20090	5290.625000	6.670000	0.000000	500.000000	0.000000
; 7.65e, n,
20091	5284.833000	7.650000	0.000000	500.000000	0.000000
; 7.86n, s,
20092	5305.080000	7.860000	0.000000	500.000000	0.000000
; 8.75e, s, n,
20093	5303.544000	8.750000	0.000000	500.000000	0.000000
; 8.81s, n,
20094	5306.266000	8.810000	0.000000	500.000000	0.000000
; 8.72n, s,
20095	5310.467000	8.720000	0.000000	500.000000	0.000000
; 8.21s, w,
20096	5313.534000	8.210000	0.000000	500.000000	0.000000
; 7.65e, w, n,
20097	5317.153000	7.650000	0.000000	500.000000	0.000000
; 7.37e, s, w, n,
20098	5317.745000	7.370000	0.000000	500.000000	0.000000
; 6.71ne, w,
20099	5282.699000	6.710000	0.000000	500.000000	0.000000
; 4.48e,
20100	5286.085000	4.480000	0.000000	500.000000	0.000000
; 6.35n, s, 5.89w,
20101	5308.193000	6.350000	0.000000	500.000000	0.000000
; 5.12e, w,
20102	5310.610000	5.120000	0.000000	500.000000	0.000000
; 8.06e, w,
20103	5319.056000	8.060000	0.000000	500.000000	0.000000
; 8.66e, w,
20104	5323.755000	8.660000	0.000000	500.000000	0.000000
; 10.19e, w,
20105	5325.967000	10.190000	0.000000	500.000000	0.000000
; 11.56e, w, 8.12n,
20106	5327.647000	11.560000	0.000000	500.000000	0.000000
; 11.47e, w,
20107	5329.027000	11.470000	0.000000	500.000000	0.000000
; 12.18e, w, 10.87s,
20108	5329.712000	12.180000	0.000000	500.000000	0.000000
; 12.77e, w,
20109	5331.802000	12.770000	0.000000	500.000000	0.000000
; 14.48e, 11.75w,
20110	5333.196000	14.480000	0.000000	500.000000	0.000000
; 18.69e, w, 10.52w,
20111	5335.009000	18.690000	0.000000	500.000000	0.000000
; 7.27e, s, w, n,
20112	5320.383000	7.270000	0.000000	500.000000	0.000000
; 6.98e, w, n,
20113	5327.872000	6.980000	0.000000	500.000000	0.000000
; 8.39e, s, 8.16n,
20114	5331.127000	8.390000	0.000000	500.000000	0.000000
; 8.25n, w,
20115	5332.155000	8.250000	0.000000	500.000000	0.000000
; 9.27e, s,
20116	5333.456000	9.270000	0.000000	500.000000	0.000000
; 6.93s, w,
20117	5332.219000	6.930000	0.000000	500.000000	0.000000
; 7.49e, sw,
20118	5333.561000	7.490000	0.000000	500.000000	0.000000
; 7.84e, s, n,
20119	5338.541000	7.840000	0.000000	500.000000	0.000000
; 4.19n,
20120	5341.560000	4.190000	0.000000	500.000000	0.000000
; 6.14e, w,
20121	5339.060000	6.170000	0.000000	500.000000	0.000000
; 8.09w, s,
20122	5332.551000	8.090000	0.000000	500.000000	0.000000
; 6.06e, w,
20123	5327.660000	6.060000	0.000000	500.000000	0.000000
; 5.33n, w,
20124	5323.022000	5.330000	0.000000	500.000000	0.000000
; 5.96s, w, n,
20125	5325.266000	5.960000	0.000000	500.000000	0.000000
; 5.06e, s, n,
20126	5313.335000	5.060000	0.000000	500.000000	0.000000
; 4.98s, w,
20127	5314.167000	4.980000	0.000000	500.000000	0.000000
; 7.21e, w,
20128	5317.124000	7.210000	0.000000	500.000000	0.000000
; 12.24e, s, w,
20129	5318.260000	12.240000	0.000000	500.000000	0.000000
; 13.71e, n, 5.89s,
20130	5319.591000	13.710000	0.000000	500.000000	0.000000
; 4.25n, e,
20131	5329.543000	4.250000	0.000000	500.000000	0.000000
; 4.11n, s,
20132	5331.288000	4.110000	0.000000	500.000000	0.000000
; 9.17n,
20133	5319.443000	9.170000	0.000000	500.000000	0.000000
; 7.01e,
20134	5320.472000	7.010000	0.000000	500.000000	0.000000
; 8.18e, w,
20135	5317.283000	8.180000	0.000000	500.000000	0.000000
; 5.09n, w,
20136	5314.226000	5.090000	0.000000	500.000000	0.000000
; 13.69s, n,
20137	5320.308000	13.690000	0.000000	500.000000	0.000000
; 13.34s, w, n,
20138	5321.223000	13.340000	0.000000	500.000000	0.000000
; 11.92s, n,
20139	5322.338000	11.920000	0.000000	500.000000	0.000000
; 6.98s, n,
20140	5323.828000	6.980000	0.000000	500.000000	0.000000
; 5.18s, w,
20141	5325.562000	5.180000	0.000000	500.000000	0.000000
; 7.63e, s, w, n,
20142	5326.810000	7.630000	0.000000	500.000000	0.000000
; 7.05e, s, w,
20143	5330.192000	7.050000	0.000000	500.000000	0.000000
; e, w,
20144	5333.871000	7.154000	0.000000	500.000000	0.000000
; e, s,
20145	5339.338000	4.626000	0.000000	500.000000	0.000000
; n, s, w,
20146	5331.238000	2.390000	0.000000	500.000000	0.000000
; e, w,
20150	5328.656000	8.135000	0.000000	500.000000	0.000000
; 7.86n, s,
20151	5323.373000	7.860000	0.000000	500.000000	0.000000
; 4.32s, n,
20152	5330.396000	4.320000	0.000000	500.000000	0.000000
; 3.59s, n,
20153	5331.289000	3.590000	0.000000	500.000000	0.000000
; 4.52s,
20154	5332.262000	4.520000	0.000000	500.000000	0.000000
; 3.31n, w,
20155	5334.012000	3.310000	0.000000	500.000000	0.000000
; 5.13n, s,
20156	5333.540000	5.130000	0.000000	500.000000	0.000000
; 6.74n, s,
20157	5332.946000	6.740000	0.000000	500.000000	0.000000
; 9.64n, s,
20158	5332.018000	9.640000	0.000000	500.000000	0.000000
; 3.93e, w, n,
20159	5334.633000	3.930000	0.000000	500.000000	0.000000
20160	5335.450000	6.413000	0.000000	500.000000	0.000000
; 6.61e, w, n,
20161	5335.541000	6.610000	0.000000	500.000000	0.000000
; 5.11e,
20162	5340.815000	5.110000	0.000000	500.000000	0.000000
; 5.94s,
20163	5338.936000	5.940000	0.000000	500.000000	0.000000
; 4.75n, s, w,
20164	5343.046000	4.750000	0.000000	500.000000	0.000000
; 7.31n, e, s, w,
20165	5342.111000	7.310000	0.000000	500.000000	0.000000
; 8.89e, s, w,
20166	5340.136000	8.890000	0.000000	500.000000	0.000000
; 4.96n, s, w,
20167	5337.461000	4.960000	0.000000	500.000000	0.000000
; 7.28e, n,
20168	5336.601000	7.280000	0.000000	500.000000	0.000000
; 7.03s, w, n,
20169	5338.346000	7.030000	0.000000	500.000000	0.000000
; 8.65e, s, w, n,
20170	5340.282000	8.650000	0.000000	500.000000	0.000000
; 6.97e, s, w,
20171	5336.791000	6.970000	0.000000	500.000000	0.000000
; 5.67e, w, n,
20172	5333.944000	5.670000	0.000000	500.000000	0.000000
; 6.43s, w, n, e,
20173	5330.228000	6.430000	0.000000	500.000000	0.000000
; 8.98e, s, w, n,
20174	5326.721000	8.980000	0.000000	500.000000	0.000000
; 6.99s, w, n,
20175	5331.774000	6.990000	0.000000	500.000000	0.000000
; 6.62e, w,
20176	5342.980000	6.620000	0.000000	500.000000	0.000000
; 9.04e, s, w, n,
20177	5332.336000	9.040000	0.000000	500.000000	0.000000
; 8.92e, w,
20178	5336.573000	8.920000	0.000000	500.000000	0.000000
; 8.08e, s, w, n,
20179	5347.365000	8.080000	0.000000	500.000000	0.000000
; 8.31e, w, n,
20180	5348.469000	8.310000	0.000000	500.000000	0.000000
; 7.01n, e,
20181	5335.535000	7.010000	0.000000	500.000000	0.000000
; 8.65e, s, w, n,
20182	5322.527000	8.650000	0.000000	500.000000	0.000000
; 7.43e, s, w, n,
20183	5329.798000	7.430000	0.000000	500.000000	0.000000
; 7.38e, s, w, n,
20184	5336.622000	7.380000	0.000000	500.000000	0.000000
; 7.48e, w,
20185	5339.766000	7.480000	0.000000	500.000000	0.000000
; 8.15e, s, w, n,
20186	5343.925000	8.150000	0.000000	500.000000	0.000000
; 7.08e, s, w,
20187	5347.311000	7.080000	0.000000	500.000000	0.000000
; 7.87e, s, w, n,
20188	5349.230000	7.870000	0.000000	500.000000	0.000000
; 8.71s, w,
20189	5324.994000	8.710000	0.000000	500.000000	0.000000
; 5.37e, se, w,
20190	5331.999000	5.370000	0.000000	500.000000	0.000000
; 5.49s, w, 5.06n,
20191	5338.785000	5.490000	0.000000	500.000000	0.000000
; 5.48e, w,
20192	5341.179000	5.480000	0.000000	500.000000	0.000000
; 6.78s, w,
20193	5347.126000	6.780000	0.000000	500.000000	0.000000
; 6.34s, n,
20194	5352.107000	6.340000	0.000000	500.000000	0.000000
; 6.27n,
20195	5357.994000	6.304000	0.000000	500.000000	0.000000
; 6.71n, s,
20196	5355.583000	6.710000	0.000000	500.000000	0.000000
; 9.08n, s, w,
20197	5353.152000	9.080000	0.000000	500.000000	0.000000
; 10.95n, s,
20198	5351.402000	10.976000	0.000000	500.000000	0.000000
; 11.49n, s, w,
20199	5349.902000	11.490000	0.000000	500.000000	0.000000
; 10.33n, s, 9.56e,
20200	5348.755000	10.330000	0.000000	500.000000	0.000000
; 9.99n, e,
20201	5347.533000	9.990000	0.000000	500.000000	0.000000
; 8.69n, e,
20202	5345.665000	8.690000	0.000000	500.000000	0.000000
; 8.06n, s, w,
20203	5345.902000	8.060000	0.000000	500.000000	0.000000
; 9.12n, s,
20204	5343.534000	9.120000	0.000000	500.000000	0.000000
; 9.24n, s,
20205	5340.945000	9.240000	0.000000	500.000000	0.000000
; 8.46n, s,
20206	5339.710000	8.460000	0.000000	500.000000	0.000000
; 9.64n, s, 8.91w,
20207	5338.390000	9.640000	0.000000	500.000000	0.000000
; 10.84n, s,
20208	5338.069000	10.840000	0.000000	500.000000	0.000000
; 14.75n, s, 7.78w,
20209	5336.383000	14.750000	0.000000	500.000000	0.000000
; 6.59n, w,
20210	5347.590000	6.590000	0.000000	500.000000	0.000000
; 7.14e, s,
20211	5346.931000	7.140000	0.000000	500.000000	0.000000
; 6.91e, s, w, n,
20212	5349.406000	6.910000	0.000000	500.000000	0.000000
; 8.25n, w,
20213	5349.636000	8.250000	0.000000	500.000000	0.000000
; 7.83e, s, 4.86n,
20214	5348.161000	7.830000	0.000000	500.000000	0.000000
; 7.41e, s, w, n,
20215	5349.116000	7.410000	0.000000	500.000000	0.000000
; 7.92e, s, w, n,
20216	5352.745000	7.920000	0.000000	500.000000	0.000000
; 7.93s,
20217	5354.374000	7.930000	0.000000	500.000000	0.000000
; 8.02e, s, w, n,
20218	5355.007000	8.020000	0.000000	500.000000	0.000000
; 7.93e, w,
20219	5359.902000	7.896000	0.000000	500.000000	0.000000
; 7.18e, s, 6.65n,
20220	5365.747000	7.180000	0.000000	500.000000	0.000000
; 9.76n, s,
20221	5361.880000	9.760000	0.000000	500.000000	0.000000
; 8.68e, w,
20222	5356.614000	8.680000	0.000000	500.000000	0.000000
; 8.88e, s, w,
20223	5360.594000	8.880000	0.000000	500.000000	0.000000
; 8.52e, w,
20224	5364.880000	8.520000	0.000000	500.000000	0.000000
; 7.51e, w,
20225	5370.126000	7.510000	0.000000	500.000000	0.000000
; 7.03e, s, w, 6.65n,
20226	5376.666000	7.030000	0.000000	500.000000	0.000000
; 6.91e, w,
20227	5384.197000	6.910000	0.000000	500.000000	0.000000
; 6.68e,
20228	5390.828000	6.680000	0.000000	500.000000	0.000000
; 6.63n, s,
20229	5380.719000	6.630000	0.000000	500.000000	0.000000
; 7.56n, w, 6.72s,
20230	5384.151000	7.560000	0.000000	500.000000	0.000000
; 8.03e, w,
20231	5388.034000	8.030000	0.000000	500.000000	0.000000
; 5.87e, w,
20232	5347.075000	5.870000	0.000000	500.000000	0.000000
; 8.87e, w,
20233	5347.784000	6.870000	0.000000	500.000000	0.000000
; 8.98e, w,
20234	5340.719000	8.926000	0.000000	500.000000	0.000000
; 9.71e, w,
20235	5342.105000	9.710000	0.000000	500.000000	0.000000
; 7.56e,
20236	5354.076000	7.560000	0.000000	500.000000	0.000000
; 10.29e, s, w,
20237	5342.805000	10.290000	0.000000	500.000000	0.000000
; 8.54e, w,
20238	5349.888000	8.540000	0.000000	500.000000	0.000000
; 9.08e, s, 8.14w,
20239	5352.248000	9.080000	0.000000	500.000000	0.000000
; 8.01e, s, w,
20240	5357.536000	8.010000	0.000000	500.000000	0.000000
; 5.15e, w,
20241	5362.575000	5.150000	0.000000	500.000000	0.000000
; 9.28e, w,
20242	5347.629000	9.280000	0.000000	500.000000	0.000000
; 8.46e, w,
20243	5352.887000	8.460000	0.000000	500.000000	0.000000
; 8.77e, w, 7.77n,
20244	5356.244000	8.770000	0.000000	500.000000	0.000000
; 10.05e, w,
20245	5362.638000	10.050000	0.000000	500.000000	0.000000
; 9.09e, w, 7.82n,
20246	5367.543000	9.090000	0.000000	500.000000	0.000000
; 10.48e, w,
20247	5371.520000	10.480000	0.000000	500.000000	0.000000
; 10.12e, s, w, 8.78n,
20248	5375.143000	10.120000	0.000000	500.000000	0.000000
; 8.86s, n,
20249	5375.521000	8.783000	0.000000	500.000000	0.000000
; 7.58e, w,
20250	5384.018000	7.580000	0.000000	500.000000	0.000000
; 5.04e,w
20251	5300.250000	7.580000	0.000000	500.000000	0.000000
; 10.22e, w,
20252	5386.306000	10.220000	0.000000	500.000000	0.000000
; 10.59e, w,
20253	5391.004000	10.590000	0.000000	500.000000	0.000000
; 5.14e,
20254	5352.818000	5.140000	0.000000	500.000000	0.000000
; 8.53e, s, w,
20255	5352.031000	8.530000	0.000000	500.000000	0.000000
; 7.24e, s,
20256	5355.834000	7.242000	0.000000	500.000000	0.000000
; 4.76n, w,
20257	5354.192000	4.760000	0.000000	500.000000	0.000000
; 2.57w,
20258	5360.585000	2.570000	0.000000	500.000000	0.000000
; 6.61s,
20259	5361.752000	6.610000	0.000000	500.000000	0.000000
; 5.21n,
20260	5356.189000	5.210000	0.000000	500.000000	0.000000
; 6.98n, e, s, w,
20261	5355.229000	6.980000	0.000000	500.000000	0.000000
; 7.03w, e,
20262	5356.262000	7.030000	0.000000	500.000000	0.000000
; 7.21e, w,
20263	5356.582000	7.210000	0.000000	500.000000	0.000000
; 8.81e, s, w,
20264	5354.130000	8.810000	0.000000	500.000000	0.000000
; 5.98e, w,
20265	5359.543000	5.980000	0.000000	500.000000	0.000000
; 7.21e, s, w,
20266	5360.375000	7.210000	0.000000	500.000000	0.000000
; 7.89e, s,
20267	5362.928000	7.890000	0.000000	500.000000	0.000000
; 7.79n, s, w,
20268	5365.476000	7.790000	0.000000	500.000000	0.000000
; 7.89e, w, n,
20269	5367.345000	7.890000	0.000000	500.000000	0.000000
; 9.52e, s, w,
20270	5369.279000	9.520000	0.000000	500.000000	0.000000
; 6.05e, w, 5.98nw,
20271	5374.032000	6.050000	0.000000	500.000000	0.000000
; 3.14n, w,
20272	5371.698000	3.140000	0.000000	500.000000	0.000000
; 6.32e, s, w, n,
20273	5374.063000	6.320000	0.000000	500.000000	0.000000
; 6.25s, n,
20274	5376.663000	6.250000	0.000000	500.000000	0.000000
; 5.72e, w, n,
20275	5380.426000	5.720000	0.000000	500.000000	0.000000
; 6.74e, w,
20276	5373.803000	6.740000	0.000000	500.000000	0.000000
; 6.76e, w,
20277	5370.008000	6.760000	0.000000	500.000000	0.000000
; 7.59e,
20278	5361.352000	7.590000	0.000000	500.000000	0.000000
; 5.62e,
20279	5367.758000	5.620000	0.000000	500.000000	0.000000
; 7.32s, n,
20280	5377.611000	7.320000	0.000000	500.000000	0.000000
; 6.56s, w, n,
20281	5380.652000	6.560000	0.000000	500.000000	0.000000
; 4.52s, nw,
20282	5386.801000	4.520000	0.000000	500.000000	0.000000
; 7.55e, w, n,
20283	5382.171000	7.550000	0.000000	500.000000	0.000000
; 8.07s, n, 8.96w,
20284	5380.596000	8.070000	0.000000	500.000000	0.000000
; 7.36s, w, n,
20285	5382.626000	7.360000	0.000000	500.000000	0.000000
; 5.12n, w,
20286	5381.209000	5.120000	0.000000	500.000000	0.000000
; 5.21e, w,
20287	5388.170000	5.210000	0.000000	500.000000	0.000000
; 5.39n, w,
20288	5380.511000	5.390000	0.000000	500.000000	0.000000
; 4.88e, w,
20289	5386.782000	4.880000	0.000000	500.000000	0.000000
; 5.04n, s, w,
20290	5378.229000	5.040000	0.000000	500.000000	0.000000
; 4.84e, w,
20291	5384.723000	4.840000	0.000000	500.000000	0.000000
; 4.62e, w,
20292	5394.063000	4.620000	0.000000	500.000000	0.000000
; 3.95e, w,
20293	5397.044000	3.950000	0.000000	500.000000	0.000000
; 7.81e, s, w, n,
20294	5358.428000	7.810000	0.000000	500.000000	0.000000
; 6.98e, w,
20295	5364.113000	6.980000	0.000000	500.000000	0.000000
; 6.06e, w,
20296	5371.011000	6.060000	0.000000	500.000000	0.000000
; 7.53e, w, n,
20297	5370.623000	7.530000	0.000000	500.000000	0.000000
; 7.92e, s, w, n,
20298	5361.767000	7.920000	0.000000	500.000000	0.000000
; 7.86n, s, w,
20299	5289.742000	7.860000	0.000000	500.000000	0.000000
; 5.98e, s, w,
20300	5285.379000	5.980000	0.000000	500.000000	0.000000
; 7.11n, s, 6.19w, 6.12e,
20301	5284.126000	7.110000	0.000000	500.000000	0.000000
; 8.11n, s,
20302	5280.622000	8.110000	0.000000	500.000000	0.000000
; 8.39n, s,
20303	5277.238000	8.390000	0.000000	500.000000	0.000000
; 11.22e, s, n,
20304	5268.078000	11.220000	0.000000	500.000000	0.000000
; 6.64s, w, n,
20305	5270.278000	6.640000	0.000000	500.000000	0.000000
; 11.80.8e, w, n,
20306	5278.594000	11.807000	0.000000	500.000000	0.000000
; 10.99s, n, w, 8.4n,
20307	5279.388000	10.982000	0.000000	500.000000	0.000000
; 6.63s, w, n,
20308	5356.701000	6.630000	0.000000	500.000000	0.000000
; 6.29s, w,
20309	5357.069000	6.290000	0.000000	500.000000	0.000000
; 6.91e, w,
20310	5364.744000	6.910000	0.000000	500.000000	0.000000
; 6.91e, w, n,
20311	5367.600000	6.910000	0.000000	500.000000	0.000000
; 5.43e, s, w,
20312	5372.211000	5.430000	0.000000	500.000000	0.000000
; 6.73s, w, n,
20313	5363.160000	6.730000	0.000000	500.000000	0.000000
; 8.57e, s, w,
20314	5361.431000	8.570000	0.000000	500.000000	0.000000
; 9.63e, s,
20315	5357.984000	9.630000	0.000000	500.000000	0.000000
; 9.76ne, w,
20316	5358.574000	9.760000	0.000000	500.000000	0.000000
; 5.16s, w,
20317	5370.321000	5.160000	0.000000	500.000000	0.000000
; 9.36e, s, w, n,
20318	5297.947000	9.360000	0.000000	500.000000	0.000000
; 7.93e, s, w, n, 4.62n,
20319	5305.915000	7.930000	0.000000	500.000000	0.000000
; 8.48e, s, w, n,
20320	5311.525000	8.480000	0.000000	500.000000	0.000000
; 8.42e, s, w,
20321	5313.178000	8.420000	0.000000	500.000000	0.000000
; 8.31e, w, 7.76s,
20322	5316.364000	8.310000	0.000000	500.000000	0.000000
; 8.55e, s, w, n,
20323	5318.203000	8.550000	0.000000	500.000000	0.000000
; 8.35e, s, w,
20324	5331.157000	8.350000	0.000000	500.000000	0.000000
; 8.01e, s, w, n,
20325	5337.391000	8.010000	0.000000	500.000000	0.000000
; 7.73e, w,
20326	5342.157000	7.730000	0.000000	500.000000	0.000000
; 7.57e, s, w, n,
20327	5346.350000	7.570000	0.000000	500.000000	0.000000
; 7.17e, s, w, n,
20328	5351.748000	7.170000	0.000000	500.000000	0.000000
; 6.79e, s, w, n,
20329	5365.050000	6.790000	0.000000	500.000000	0.000000
; 7.23e, s,
20330	5366.878000	7.230000	0.000000	500.000000	0.000000
; 7.19ne, w,
20331	5367.023000	7.190000	0.000000	500.000000	0.000000
; 8.65e, s, w, n,
20332	5369.185000	8.650000	0.000000	500.000000	0.000000
; 10.56e, s, w, n,
20333	5371.762000	10.560000	0.000000	500.000000	0.000000
; 9.96e, w, n,
20334	5376.528000	9.960000	0.000000	500.000000	0.000000
; 8.17e, s, w, n,
20335	5382.323000	8.170000	0.000000	500.000000	0.000000
; 8.25e, s, w,
20336	5383.337000	8.250000	0.000000	500.000000	0.000000
; 7.33e, w, 6.99n,
20337	5389.282000	7.330000	0.000000	500.000000	0.000000
; 7.14e, w, 6.45n,
20338	5390.757000	7.140000	0.000000	500.000000	0.000000
; 8e, w,
20339	5391.942000	8.000000	0.000000	500.000000	0.000000
; 7.84e, s, w, n,
20340	5397.628000	7.840000	0.000000	500.000000	0.000000
; 6.33n, s,
20341	5400.621000	6.330000	0.000000	500.000000	0.000000
; 5.95n, s,
20342	5406.991000	5.950000	0.000000	500.000000	0.000000
; 7.88s, w, n,
20343	5401.409000	7.880000	0.000000	500.000000	0.000000
; 8.17e, s, w, n,
20344	5401.064000	8.170000	0.000000	500.000000	0.000000
; 0.83
20345	5406.319000	0.830000	0.000000	500.000000	0.000000
; 10.24e, s, w, n,
20346	5403.039000	10.240000	0.000000	500.000000	0.000000
; 7.26e, s, n, 8.74w,
20347	5404.650000	8.738000	0.000000	500.000000	0.000000
; 7.78n, s, w,
20348	5405.157000	7.780000	0.000000	500.000000	0.000000
; 7.99s, n, 7.56w,
20349	5408.478000	7.990000	0.000000	500.000000	0.000000
; 7.35e, s, w, 6.56n,
20350	5291.724000	7.350000	0.000000	500.000000	0.000000
; 8.01e, s, w, n,
20351	5298.304000	8.010000	0.000000	500.000000	0.000000
; 7.21e, w, n, 6.29s,
20352	5304.907000	7.210000	0.000000	500.000000	0.000000
; 8.18e, s, w, n,
20353	5310.833000	8.180000	0.000000	500.000000	0.000000
; 7.29e, w,
20354	5319.490000	7.290000	0.000000	500.000000	0.000000
; 8.21e, s, w, n,
20355	5325.384000	8.273000	0.000000	500.000000	0.000000
; 4.86n, s,
20356	5329.140000	4.889000	0.000000	500.000000	0.000000
; 8.16n, e, s, w,
20357	5335.605000	8.160000	0.000000	500.000000	0.000000
; 8.04e, w,
20358	5341.524000	8.040000	0.000000	500.000000	0.000000
; 5.47s, w, e,
20359	5350.045000	5.470000	0.000000	500.000000	0.000000
; 8.02e, w, n,
20360	5353.845000	8.020000	0.000000	500.000000	0.000000
; 3.73e,
20361	5364.627000	3.730000	0.000000	500.000000	0.000000
; 8.94e, w,
20362	5285.180000	8.940000	0.000000	500.000000	0.000000
; 8.72e, w,
20363	5290.500000	8.720000	0.000000	500.000000	0.000000
; 10.12e, w, 7.29n,
20364	5296.032000	10.120000	0.000000	500.000000	0.000000
; 10.23e, w, 9.24n,
20365	5298.934000	10.230000	0.000000	500.000000	0.000000
; 11.21e, w, n,
20366	5300.852000	11.210000	0.000000	500.000000	0.000000
; 11.06e, w,
20367	5301.597000	11.060000	0.000000	500.000000	0.000000
; 10.56e, s, w, n, 7.88w, 3.28n,
20368	5302.212000	10.560000	0.000000	500.000000	0.000000
; 6.58e, w, n,
20369	5307.603000	6.580000	0.000000	500.000000	0.000000
; 9.47e, n,
20370	5304.930000	9.470000	0.000000	500.000000	0.000000
; 6.73e, s, w,
20371	5311.438000	6.730000	0.000000	500.000000	0.000000
; 5.83n, e, w,
20372	5299.447000	5.830000	0.000000	500.000000	0.000000
; 5.65s, w,
20373	5297.627000	5.650000	0.000000	500.000000	0.000000
; 6.76e, w, n,
20374	5270.830000	6.760000	0.000000	500.000000	0.000000
; 10.21e, w,
20375	5272.636000	10.210000	0.000000	500.000000	0.000000
; 5.03e, w,
20376	5280.571000	5.030000	0.000000	500.000000	0.000000
; 5.03e, w,
20377	5286.287000	5.030000	0.000000	500.000000	0.000000
; 5.67n,
20378	5287.173000	5.670000	0.000000	500.000000	0.000000
; 6.41e, w,
20379	5286.487000	6.410000	0.000000	500.000000	0.000000
; 5.86e, w, 5.04s,
20380	5288.636000	5.860000	0.000000	500.000000	0.000000
; 5.68n, s,
20381	5290.696000	5.680000	0.000000	500.000000	0.000000
; 6.89n, w,
20382	5298.754000	6.890000	0.000000	500.000000	0.000000
; 5.47e, w,
20383	5289.384000	5.470000	0.000000	500.000000	0.000000
; 6.18e, w, n,
20384	5291.853000	6.180000	0.000000	500.000000	0.000000
; 4.93e, w,
20385	5292.704000	4.930000	0.000000	500.000000	0.000000
; 5.83e, w,
20386	5295.405000	5.830000	0.000000	500.000000	0.000000
; 5.82n, s,
20387	5293.260000	5.820000	0.000000	500.000000	0.000000
; 7.62e,
20388	5275.125000	7.620000	0.000000	500.000000	0.000000
; 7.04e, w,
20389	5268.463000	7.040000	0.000000	500.000000	0.000000
; 6.29e, w,
20390	5263.411000	6.290000	0.000000	500.000000	0.000000
; 6.41e, w, n,
20391	5260.364000	6.410000	0.000000	500.000000	0.000000
; 5.75s, w,
20392	5260.099000	5.750000	0.000000	500.000000	0.000000
; 5.41s, w,
20393	5261.064000	5.410000	0.000000	500.000000	0.000000
; 3.03n, s,
20394	5313.734000	3.030000	0.000000	500.000000	0.000000
; 6.91e, w,
20395	5317.624000	6.910000	0.000000	500.000000	0.000000
; 7.56e, s, w,
20396	5321.773000	7.560000	0.000000	500.000000	0.000000
; 7.76e, s,
20397	5322.012000	7.760000	0.000000	500.000000	0.000000
; 5.66e, s, w,
20398	5331.257000	5.660000	0.000000	500.000000	0.000000
; 8.03e, w,
20399	5337.250000	8.030000	0.000000	500.000000	0.000000
; 8.86e, w,
20400	5342.974000	8.860000	0.000000	500.000000	0.000000
; 2.96N, S,
20401	5293.007000	2.960000	0.000000	500.000000	0.000000
; 7.24E, S, N,
20402	5300.490000	7.240000	0.000000	500.000000	0.000000
; 5.68N, S,
20403	5304.294000	5.680000	0.000000	500.000000	0.000000
; 8.23N, E, S, W,
20404	5306.957000	8.230000	0.000000	500.000000	0.000000
; 7.07E, S, N, W,
20405	5298.854000	7.070000	0.000000	500.000000	0.000000
; 7.32E, N,
20406	5293.859000	7.320000	0.000000	500.000000	0.000000
; 6.83N, S,
20407	5313.536000	6.830000	0.000000	500.000000	0.000000
; 4.86N, E, S, 3.72S,
20408	5322.674000	4.860000	0.000000	500.000000	0.000000
; 5.76N, S,
20409	5322.027000	5.760000	0.000000	500.000000	0.000000
; 6.83E, S, SW, W, N,
20410	5322.845000	6.830000	0.000000	500.000000	0.000000
; 4.67N, S,
20411	5325.327000	4.670000	0.000000	500.000000	0.000000
; 7.55E, S, N,
20412	5319.060000	7.550000	0.000000	500.000000	0.000000
; 6.67SE, W,
20413	5320.110000	6.670000	0.000000	500.000000	0.000000
; 7.68N, S,
20414	5329.801000	7.680000	0.000000	500.000000	0.000000
; 6.09N, S, W, 5.68E,
20415	5332.911000	6.090000	0.000000	500.000000	0.000000
; 7.5e, w,
20416	5336.565000	7.432000	0.000000	500.000000	0.000000
; 3.89N,