[OPTIONS]
;Option and Files Scenario Set: BASE
FLOW_UNITS	GPM
INFILTRATION	HORTON
FLOW_ROUTING	DYNWAVE
ALLOW_PONDING	NO
DRY_DAYS	5.000000
SKIP_STEADY_STATE 	NO
IGNORE_RAINFALL	NO
IGNORE_SNOWMELT	NO
IGNORE_GROUNDWATER	NO
IGNORE_QUALITY	NO
FORCE_MAIN_EQUATION	H-W
LINK_OFFSETS	DEPTH
MIN_SLOPE	0.000000
START_DATE	01/01/2002
START_TIME	00:00:00
END_DATE	01/01/2002
END_TIME	24:00:00
REPORT_START_DATE	01/01/2002
REPORT_START_TIME	00:00
SWEEP_START	01/01
SWEEP_END	12/31
WET_STEP	01:00:00
DRY_STEP	23:00:00
ROUTING_STEP	300
REPORT_STEP	00:05:00
INERTIAL_DAMPING	NONE
VARIABLE_STEP	0.750000
MINIMUM_STEP	0.5
LENGTHENING_STEP	0
MIN_SURFAREA	0.000000
NORMAL_FLOW_LIMITED	BOTH

[FILES]

[RAINGAGES]

[HYDROGRAPHS]

[TEMPERATURE]

[ADJUSTMENTS]

[SUBCATCHMENTS]

[SUBAREAS]

[INFILTRATION]

[AQUIFERS]

[GROUNDWATER]

[GWF]

[SNOWPACKS]

[JUNCTIONS]
CO-431	55.680000	11.174401	0.000000	0.000000	0.000000
DEVLIN MH - 1	0.000000	41.490000	0.000000	0.000000	0.000000
DEVLIN MH - 10	28.030000	8.160000	0.000000	0.000000	0.000000
DEVLIN MH - 11	27.430000	11.340000	0.000000	0.000000	0.000000
DEVLIN MH - 12	26.990000	13.030000	0.000000	0.000000	0.000000
DEVLIN MH - 13	8.440000	29.570000	0.000000	0.000000	0.000000
DEVLIN MH - 14	4.780000	30.520000	0.000000	0.000000	0.000000
DEVLIN MH - 15	8.440000	27.860000	0.000000	0.000000	0.000000
DEVLIN MH - 16	8.210000	27.090000	0.000000	0.000000	0.000000
DEVLIN MH - 17	7.990000	27.310000	0.000000	0.000000	0.000000
DEVLIN MH - 18	7.770000	27.530000	0.000000	0.000000	0.000000
DEVLIN MH - 19	7.210000	29.090000	0.000000	0.000000	0.000000
DEVLIN MH - 2	32.920000	8.000000	0.000000	0.000000	0.000000
DEVLIN MH - 20	6.660000	29.640000	0.000000	0.000000	0.000000
DEVLIN MH - 21	6.280000	29.020000	0.000000	0.000000	0.000000
DEVLIN MH - 22	5.960000	28.740000	0.000000	0.000000	0.000000
DEVLIN MH - 23	5.180000	28.120000	0.000000	0.000000	0.000000
DEVLIN MH - 24	5.640000	28.460000	0.000000	0.000000	0.000000
DEVLIN MH - 3	32.120000	8.500000	0.000000	0.000000	0.000000
DEVLIN MH - 4	31.740000	10.260000	0.000000	0.000000	0.000000
DEVLIN MH - 5	30.930000	8.620000	0.000000	0.000000	0.000000
DEVLIN MH - 6	30.330000	9.210000	0.000000	0.000000	0.000000
DEVLIN MH - 7	29.730000	6.620000	0.000000	0.000000	0.000000
DEVLIN MH - 8	29.170000	7.230000	0.000000	0.000000	0.000000
DEVLIN MH - 9	28.590000	7.640000	0.000000	0.000000	0.000000
MH-1	8.460000	9.540000	0.000000	0.000000	0.000000
MH-10	9.700000	9.300000	0.000000	0.000000	0.000000
MH-100	62.140000	4.660000	0.000000	0.000000	0.000000
MH-101	63.100000	4.800000	0.000000	0.000000	0.000000
MH-102	17.050000	6.950000	0.000000	0.000000	0.000000
MH-103	19.770000	3.230000	0.000000	0.000000	0.000000
MH-104	18.410000	4.590000	0.000000	0.000000	0.000000
MH-105	15.440000	10.560000	0.000000	0.000000	0.000000
MH-107	14.000000	15.000000	0.000000	0.000000	0.000000
MH-108	4.630000	25.370000	0.000000	0.000000	0.000000
MH-109	14.550000	13.450000	0.000000	0.000000	0.000000
MH-11	12.120000	7.480000	0.000000	0.000000	0.000000
MH-110	15.570000	13.430000	0.000000	0.000000	0.000000
MH-111	16.530000	13.470000	0.000000	0.000000	0.000000
MH-112	15.640000	16.360000	0.000000	0.000000	0.000000
MH-113	17.800000	12.200000	0.000000	0.000000	0.000000
MH-114	18.340000	14.660000	0.000000	0.000000	0.000000
MH-115	20.910000	13.090000	0.000000	0.000000	0.000000
MH-116	24.710000	7.290000	0.000000	0.000000	0.000000
MH-117	21.040000	13.960000	0.000000	0.000000	0.000000
MH-118	31.700000	0.300000	0.000000	0.000000	0.000000
MH-119	9.500000	8.800000	0.000000	0.000000	0.000000
MH-12	34.040000	17.960000	0.000000	0.000000	0.000000
MH-120	8.540000	10.260000	0.000000	0.000000	0.000000
MH-121	7.550000	8.150000	0.000000	0.000000	0.000000
MH-122	6.700000	9.600000	0.000000	0.000000	0.000000
MH-123	5.850000	9.150000	0.000000	0.000000	0.000000
MH-124	22.480000	14.520000	0.000000	0.000000	0.000000
MH-125	4.900000	11.390000	0.000000	0.000000	0.000000
MH-126	4.190000	13.410000	0.000000	0.000000	0.000000
MH-127	3.730000	15.370000	0.000000	0.000000	0.000000
MH-128	1.920000	15.380000	0.000000	0.000000	0.000000
MH-129	3.260000	14.240000	0.000000	0.000000	0.000000
MH-13	12.440000	7.360000	0.000000	0.000000	0.000000
MH-130	2.700000	13.200000	0.000000	0.000000	0.000000
MH-131	106.060000	3.940000	0.000000	0.000000	0.000000
MH-132	103.900000	6.100000	0.000000	0.000000	0.000000
MH-133	102.500000	7.500000	0.000000	0.000000	0.000000
MH-134	54.900000	10.100000	0.000000	0.000000	0.000000
MH-135	25.960000	14.040000	0.000000	0.000000	0.000000
MH-136	22.130000	5.870000	0.000000	0.000000	0.000000
MH-137	44.900000	7.100000	0.000000	0.000000	0.000000
MH-138	16.928000	7.072000	0.000000	0.000000	0.000000
MH-139	4.940000	18.360000	0.000000	0.000000	0.000000
MH-14	12.920000	6.330000	0.000000	0.000000	0.000000
MH-140	102.000000	8.000000	0.000000	0.000000	0.000000
MH-141	32.380000	5.620000	0.000000	0.000000	0.000000
MH-142	6.220000	13.780000	0.000000	0.000000	0.000000
MH-143	5.230000	15.770000	0.000000	0.000000	0.000000
MH-144	5.590000	15.410000	0.000000	0.000000	0.000000
MH-145	6.620000	13.380000	0.000000	0.000000	0.000000
MH-146	6.900000	13.100000	0.000000	0.000000	0.000000
MH-147	7.310000	11.690000	0.000000	0.000000	0.000000
MH-148	20.800000	7.200000	0.000000	0.000000	0.000000
MH-149	30.000000	14.000000	0.000000	0.000000	0.000000
MH-15	11.150000	8.850000	0.000000	0.000000	0.000000
MH-150	7.810000	11.190000	0.000000	0.000000	0.000000
MH-151	19.510000	12.490000	0.000000	0.000000	0.000000
MH-152	18.150000	14.850000	0.000000	0.000000	0.000000
MH-153	16.710000	13.290000	0.000000	0.000000	0.000000
MH-154	13.410000	12.590000	0.000000	0.000000	0.000000
MH-155	6.400000	18.600000	0.000000	0.000000	0.000000
MH-156	6.320000	16.880000	0.000000	0.000000	0.000000
MH-157	14.470000	11.530000	0.000000	0.000000	0.000000
MH-158	15.770000	13.230000	0.000000	0.000000	0.000000
MH-159	6.700000	18.300000	0.000000	0.000000	0.000000
MH-16	12.270000	6.730000	0.000000	0.000000	0.000000
MH-160	30.850000	17.150000	0.000000	0.000000	0.000000
MH-161	6.940000	14.460000	0.000000	0.000000	0.000000
MH-162	7.060000	16.340000	0.000000	0.000000	0.000000
MH-163	14.490000	7.510000	0.000000	0.000000	0.000000
MH-164	16.110000	8.890000	0.000000	0.000000	0.000000
MH-165	43.990000	7.310000	0.000000	0.000000	0.000000
MH-166	48.290000	7.310000	0.000000	0.000000	0.000000
MH-167	51.336000	15.464000	0.000000	0.000000	0.000000
MH-168	29.200000	12.000000	0.000000	0.000000	0.000000
MH-17	11.570000	8.430000	0.000000	0.000000	0.000000
MH-170	44.370000	7.630000	0.000000	0.000000	0.000000
MH-171	16.700000	8.300000	0.000000	0.000000	0.000000
MH-172	64.630000	4.370000	0.000000	0.000000	0.000000
MH-173	45.000000	0.300000	0.000000	0.000000	0.000000
MH-174	52.010000	7.990000	0.000000	0.000000	0.000000
MH-175	37.740000	20.260000	0.000000	0.000000	0.000000
MH-176	55.600000	9.300000	0.000000	0.000000	0.000000
MH-177	49.050000	8.950000	0.000000	0.000000	0.000000
MH-178	52.350000	9.650000	0.000000	0.000000	0.000000
MH-179	53.720000	10.280000	0.000000	0.000000	0.000000
MH-18	14.760000	5.740000	0.000000	0.000000	0.000000
MH-180	66.000000	12.000000	0.000000	0.000000	0.000000
MH-181	68.460000	11.540000	0.000000	0.000000	0.000000
MH-183	36.730000	7.270000	0.000000	0.000000	0.000000
MH-184	38.050000	8.950000	0.000000	0.000000	0.000000
MH-185	45.750000	12.250000	0.000000	0.000000	0.000000
MH-186	59.766559	8.733441	0.000000	0.000000	0.000000
MH-187	106.140000	9.460000	0.000000	0.000000	0.000000
MH-188	94.060000	8.940000	0.000000	0.000000	0.000000
MH-189	88.230000	9.770000	0.000000	0.000000	0.000000
MH-19	16.290000	6.500000	0.000000	0.000000	0.000000
MH-190	83.390000	10.310000	0.000000	0.000000	0.000000
MH-191	86.370000	9.630000	0.000000	0.000000	0.000000
MH-192	79.400000	11.100000	0.000000	0.000000	0.000000
MH-193	68.810000	7.790000	0.000000	0.000000	0.000000
MH-194	68.430000	7.870000	0.000000	0.000000	0.000000
MH-195	68.690000	8.010000	0.000000	0.000000	0.000000
MH-196	69.020000	8.080000	0.000000	0.000000	0.000000
MH-197	69.590000	8.510000	0.000000	0.000000	0.000000
MH-198	69.410000	8.490000	0.000000	0.000000	0.000000
MH-199	70.430000	8.370000	0.000000	0.000000	0.000000
MH-2	7.830000	11.570000	0.000000	0.000000	0.000000
MH-20	37.370000	6.630000	0.000000	0.000000	0.000000
MH-200	71.020000	8.880000	0.000000	0.000000	0.000000
MH-201	74.230000	8.970000	0.000000	0.000000	0.000000
MH-202	80.890000	9.210000	0.000000	0.000000	0.000000
MH-203	87.280000	14.320000	0.000000	0.000000	0.000000
MH-204	99.700000	8.800000	0.000000	0.000000	0.000000
MH-205	116.380000	8.020000	0.000000	0.000000	0.000000
MH-206	113.800000	9.600000	0.000000	0.000000	0.000000
MH-207	67.690000	4.810000	0.000000	0.000000	0.000000
MH-208	67.780000	5.210000	0.000000	0.000000	0.000000
MH-209	68.000000	6.120000	0.000000	0.000000	0.000000
MH-21	12.870000	5.330000	0.000000	0.000000	0.000000
MH-210	41.530000	8.520000	0.000000	0.000000	0.000000
MH-211	53.000000	8.000000	0.000000	0.000000	0.000000
MH-212	33.030000	6.770000	0.000000	0.000000	0.000000
MH-213	56.310000	7.390000	0.000000	0.000000	0.000000
MH-214	55.290000	7.410000	0.000000	0.000000	0.000000
MH-215	54.180000	7.520000	0.000000	0.000000	0.000000
MH-216	53.000000	7.500000	0.000000	0.000000	0.000000
MH-217	51.340000	7.660000	0.000000	0.000000	0.000000
MH-218	52.110000	7.790000	0.000000	0.000000	0.000000
MH-219	32.380000	4.620000	0.000000	0.000000	0.000000
MH-22	37.120000	18.880000	0.000000	0.000000	0.000000
MH-220	37.500000	7.200000	0.000000	0.000000	0.000000
MH-221	39.290000	8.110000	0.000000	0.000000	0.000000
MH-222	39.650000	9.150000	0.000000	0.000000	0.000000
MH-223	40.100000	10.400000	0.000000	0.000000	0.000000
MH-224	40.450000	12.450000	0.000000	0.000000	0.000000
MH-225	40.780000	13.620000	0.000000	0.000000	0.000000
MH-226	44.620000	12.380000	0.000000	0.000000	0.000000
MH-227	46.010000	12.090000	0.000000	0.000000	0.000000
MH-228	47.520000	9.180000	0.000000	0.000000	0.000000
MH-229	4.490000	11.010000	0.000000	0.000000	0.000000
MH-23	35.070000	8.930000	0.000000	0.000000	0.000000
MH-230	3.170000	11.090000	0.000000	0.000000	0.000000
MH-231	5.820000	7.350000	0.000000	0.000000	0.000000
MH-232	2.100000	12.310000	0.000000	0.000000	0.000000
MH-233	0.940000	14.080000	0.000000	0.000000	0.000000
MH-234	0.440000	15.430000	0.000000	0.000000	0.000000
MH-235	-1.320000	15.430000	0.000000	0.000000	0.000000
MH-236	-0.300000	15.430000	0.000000	0.000000	0.000000
MH-237	-2.020000	15.630000	0.000000	0.000000	0.000000
MH-238	6.430000	7.790000	0.000000	0.000000	0.000000
MH-239	3.590000	13.090000	0.000000	0.000000	0.000000
MH-24	38.510000	15.490000	0.000000	0.000000	0.000000
MH-240	9.400000	7.610000	0.000000	0.000000	0.000000
MH-241	4.810000	10.340000	0.000000	0.000000	0.000000
MH-242	6.610000	10.120000	0.000000	0.000000	0.000000
MH-243	5.800000	9.950000	0.000000	0.000000	0.000000
MH-244	8.510000	7.740000	0.000000	0.000000	0.000000
MH-245	8.140000	8.050000	0.000000	0.000000	0.000000
MH-246	5.930000	10.280000	0.000000	0.000000	0.000000
MH-247	5.060000	9.640000	0.000000	0.000000	0.000000
MH-248	4.050000	11.970000	0.000000	0.000000	0.000000
MH-249	3.000000	10.480000	0.000000	0.000000	0.000000
MH-25	13.450000	8.550000	0.000000	0.000000	0.000000
MH-250	1.950000	8.760000	0.000000	0.000000	0.000000
MH-251	4.600000	3.200000	0.000000	0.000000	0.000000
MH-252	40.300000	11.800000	0.000000	0.000000	0.000000
MH-253	31.000000	10.440000	0.000000	0.000000	0.000000
MH-254	24.900000	11.900000	0.000000	0.000000	0.000000
MH-255	23.870000	11.930000	0.000000	0.000000	0.000000
MH-256	23.180000	9.820000	0.000000	0.000000	0.000000
MH-257	20.430000	9.370000	0.000000	0.000000	0.000000
MH-258	19.600000	9.300000	0.000000	0.000000	0.000000
MH-259	15.930000	9.370000	0.000000	0.000000	0.000000
MH-26	41.640000	8.360000	0.000000	0.000000	0.000000
MH-260	11.920000	11.180000	0.000000	0.000000	0.000000
MH-261	16.930000	9.270000	0.000000	0.000000	0.000000
MH-262	20.890000	9.910000	0.000000	0.000000	0.000000
MH-263	36.270000	9.930000	0.000000	0.000000	0.000000
MH-264	59.700000	9.500000	0.000000	0.000000	0.000000
MH-265	7.070000	10.530000	0.000000	0.000000	0.000000
MH-266	2.700000	10.400000	0.000000	0.000000	0.000000
MH-267	4.310000	9.590000	0.000000	0.000000	0.000000
MH-268	5.530000	9.970000	0.000000	0.000000	0.000000
MH-269	13.960000	9.740000	0.000000	0.000000	0.000000
MH-27	33.620000	10.380000	0.000000	0.000000	0.000000
MH-270	1.020000	9.580000	0.000000	0.000000	0.000000
MH-271	-0.400000	10.000000	0.000000	0.000000	0.000000
MH-272	-0.800000	10.100000	0.000000	0.000000	0.000000
MH-273	-1.200000	11.000000	0.000000	0.000000	0.000000
MH-274	-5.260000	13.560000	0.000000	0.000000	0.000000
MH-275	1.970000	8.050000	0.000000	0.000000	0.000000
MH-276	7.810000	7.350000	0.000000	0.000000	0.000000
MH-277	3.430000	8.050000	0.000000	0.000000	0.000000
MH-278	55.240000	14.660000	0.000000	0.000000	0.000000
MH-279	55.750000	15.750000	0.000000	0.000000	0.000000
MH-28	40.190000	7.810000	0.000000	0.000000	0.000000
MH-280	56.120000	13.680000	0.000000	0.000000	0.000000
MH-281	57.550000	13.950000	0.000000	0.000000	0.000000
MH-282	58.260000	13.240000	0.000000	0.000000	0.000000
MH-283	60.110000	9.390000	0.000000	0.000000	0.000000
MH-284	60.280000	9.620000	0.000000	0.000000	0.000000
MH-285	68.130000	6.970000	0.000000	0.000000	0.000000
MH-286	66.920000	9.180000	0.000000	0.000000	0.000000
MH-287	67.300000	11.400000	0.000000	0.000000	0.000000
MH-288	71.070000	8.930000	0.000000	0.000000	0.000000
MH-289	74.310000	7.790000	0.000000	0.000000	0.000000
MH-29	32.070000	10.930000	0.000000	0.000000	0.000000
MH-290	74.390000	6.810000	0.000000	0.000000	0.000000
MH-291	72.090000	8.110000	0.000000	0.000000	0.000000
MH-292	71.340000	8.760000	0.000000	0.000000	0.000000
MH-293	69.700000	9.600000	0.000000	0.000000	0.000000
MH-294	68.450000	9.750000	0.000000	0.000000	0.000000
MH-295	73.850000	7.650000	0.000000	0.000000	0.000000
MH-296	65.740000	10.860000	0.000000	0.000000	0.000000
MH-297	61.550000	8.550000	0.000000	0.000000	0.000000
MH-298	61.990000	8.510000	0.000000	0.000000	0.000000
MH-299	63.430000	12.270000	0.000000	0.000000	0.000000
MH-3	8.290000	11.710000	0.000000	0.000000	0.000000
MH-30	39.720000	12.280000	0.000000	0.000000	0.000000
MH-300	63.140000	13.760000	0.000000	0.000000	0.000000
MH-301	62.040000	8.460000	0.000000	0.000000	0.000000
MH-302	62.610000	10.390000	0.000000	0.000000	0.000000
MH-303	62.870000	12.330000	0.000000	0.000000	0.000000
MH-304	63.970000	11.430000	0.000000	0.000000	0.000000
MH-305	64.890000	8.110000	0.000000	0.000000	0.000000
MH-306	65.410000	6.490000	0.000000	0.000000	0.000000
MH-307	64.450000	9.650000	0.000000	0.000000	0.000000
MH-308	66.560000	4.140000	0.000000	0.000000	0.000000
MH-309	65.980000	4.920000	0.000000	0.000000	0.000000
MH-31	30.320000	11.680000	0.000000	0.000000	0.000000
MH-310	64.740000	8.460000	0.000000	0.000000	0.000000
MH-311	66.500000	4.300000	0.000000	0.000000	0.000000
MH-312	84.550000	16.750000	0.000000	0.000000	0.000000
MH-313	78.910000	8.840000	0.000000	0.000000	0.000000
MH-314	81.300000	10.720000	0.000000	0.000000	0.000000
MH-315	65.330000	11.870000	0.000000	0.000000	0.000000
MH-316	92.650000	9.550000	0.000000	0.000000	0.000000
MH-317	61.420000	7.080000	0.000000	0.000000	0.000000
MH-318	61.420000	7.080000	0.000000	0.000000	0.000000
MH-319	57.950000	13.550000	0.000000	0.000000	0.000000
MH-32	40.930000	9.070000	0.000000	0.000000	0.000000
MH-320	55.910000	15.490000	0.000000	0.000000	0.000000
MH-321	56.000000	8.800000	0.000000	0.000000	0.000000
MH-322	51.050000	7.770000	0.000000	0.000000	0.000000
MH-324	7.280000	8.970000	0.000000	0.000000	0.000000
MH-325	54.320000	7.380000	0.000000	0.000000	0.000000
MH-326	52.090000	7.410000	0.000000	0.000000	0.000000
MH-327	48.100000	7.700000	0.000000	0.000000	0.000000
MH-328	54.880000	11.870000	0.000000	0.000000	0.000000
MH-329	54.430000	8.310000	0.000000	0.000000	0.000000
MH-33	28.600000	10.400000	0.000000	0.000000	0.000000
MH-330	51.730000	7.430000	0.000000	0.000000	0.000000
MH-331	49.550000	7.590000	0.000000	0.000000	0.000000
MH-332	42.640000	14.100000	0.000000	0.000000	0.000000
MH-333	44.460000	12.960000	0.000000	0.000000	0.000000
MH-334	50.010000	9.500000	0.000000	0.000000	0.000000
MH-335	64.390000	9.820000	0.000000	0.000000	0.000000
MH-336	68.880000	9.620000	0.000000	0.000000	0.000000
MH-337	76.260000	9.300000	0.000000	0.000000	0.000000
MH-338	85.510000	13.990000	0.000000	0.000000	0.000000
MH-339	41.550000	16.150000	0.000000	0.000000	0.000000
MH-34	14.760000	8.240000	0.000000	0.000000	0.000000
MH-340	51.500000	6.600000	0.000000	0.000000	0.000000
MH-341	63.400000	5.980000	0.000000	0.000000	0.000000
MH-342	66.400000	6.670000	0.000000	0.000000	0.000000
MH-343	74.330000	8.260000	0.000000	0.000000	0.000000
MH-344	32.800000	4.200000	0.000000	0.000000	0.000000
MH-345	33.150000	3.250000	0.000000	0.000000	0.000000
MH-346	33.450000	7.150000	0.000000	0.000000	0.000000
MH-347	34.680000	6.320000	0.000000	0.000000	0.000000
MH-348	35.400000	8.800000	0.000000	0.000000	0.000000
MH-349	36.340000	8.260000	0.000000	0.000000	0.000000
MH-35	25.970000	10.030000	0.000000	0.000000	0.000000
MH-350	35.710000	8.890000	0.000000	0.000000	0.000000
MH-351	81.340000	17.160000	0.000000	0.000000	0.000000
MH-352	74.120000	10.280000	0.000000	0.000000	0.000000
MH-353	42.200000	8.300000	0.000000	0.000000	0.000000
MH-354	54.150000	9.250000	0.000000	0.000000	0.000000
MH-355	52.800000	9.100000	0.000000	0.000000	0.000000
MH-356	57.500000	9.600000	0.000000	0.000000	0.000000
MH-357	99.500000	8.530000	0.000000	0.000000	0.000000
MH-358	91.460000	10.390000	0.000000	0.000000	0.000000
MH-359	89.000000	10.800000	0.000000	0.000000	0.000000
MH-36	15.650000	7.350000	0.000000	0.000000	0.000000
MH-360	85.900000	6.900000	0.000000	0.000000	0.000000
MH-361	112.830000	6.270000	0.000000	0.000000	0.000000
MH-362	117.000000	9.300000	0.000000	0.000000	0.000000
MH-363	114.000000	9.800000	0.000000	0.000000	0.000000
MH-364	147.200000	5.800000	0.000000	0.000000	0.000000
MH-365	44.200000	11.000000	0.000000	0.000000	0.000000
MH-366	41.000000	9.900000	0.000000	0.000000	0.000000
MH-367	40.500000	9.400000	0.000000	0.000000	0.000000
MH-368	51.600000	8.400000	0.000000	0.000000	0.000000
MH-369	38.450000	9.850000	0.000000	0.000000	0.000000
MH-37	53.500000	5.200000	0.000000	0.000000	0.000000
MH-370	37.400000	9.700000	0.000000	0.000000	0.000000
MH-371	37.700000	9.800000	0.000000	0.000000	0.000000
MH-372	2.440000	8.510000	0.000000	0.000000	0.000000
MH-373	0.420000	8.230000	0.000000	0.000000	0.000000
MH-374	-0.190000	7.990000	0.000000	0.000000	0.000000
MH-375	-1.270000	10.170000	0.000000	0.000000	0.000000
MH-376	-2.230000	11.130000	0.000000	0.000000	0.000000
MH-377	-3.130000	11.220000	0.000000	0.000000	0.000000
MH-378	-3.840000	12.460000	0.000000	0.000000	0.000000
MH-379	-4.550000	13.370000	0.000000	0.000000	0.000000
MH-38	18.830000	5.870000	0.000000	0.000000	0.000000
MH-380	-6.140000	15.190000	0.000000	0.000000	0.000000
MH-381	-5.200000	14.200000	0.000000	0.000000	0.000000
MH-382	-3.460000	12.960000	0.000000	0.000000	0.000000
MH-383	-3.460000	12.560000	0.000000	0.000000	0.000000
MH-384	-1.890000	10.990000	0.000000	0.000000	0.000000
MH-385	45.300000	7.800000	0.000000	0.000000	0.000000
MH-386	42.690000	9.810000	0.000000	0.000000	0.000000
MH-387	48.050000	8.850000	0.000000	0.000000	0.000000
MH-388	47.200000	7.800000	0.000000	0.000000	0.000000
MH-389	45.420000	8.580000	0.000000	0.000000	0.000000
MH-39	51.500000	5.700000	0.000000	0.000000	0.000000
MH-390	3.760000	4.860000	0.000000	0.000000	0.000000
MH-391	2.930000	6.180000	0.000000	0.000000	0.000000
MH-392	1.780000	6.550000	0.000000	0.000000	0.000000
MH-393	0.750000	7.890000	0.000000	0.000000	0.000000
MH-394	61.710000	5.790000	0.000000	0.000000	0.000000
MH-395	61.250000	6.820000	0.000000	0.000000	0.000000
MH-396	60.700000	8.060000	0.000000	0.000000	0.000000
MH-397	65.290000	7.400000	0.000000	0.000000	0.000000
MH-398	66.610000	6.490000	0.000000	0.000000	0.000000
MH-399	67.400000	6.690000	0.000000	0.000000	0.000000
MH-4	11.000000	6.510000	0.000000	0.000000	0.000000
MH-40	15.660000	9.340000	0.000000	0.000000	0.000000
MH-400	70.030000	7.370000	0.000000	0.000000	0.000000
MH-401	46.480000	12.810000	0.000000	0.000000	0.000000
MH-402	45.420000	14.280000	0.000000	0.000000	0.000000
MH-403	47.250000	13.850000	0.000000	0.000000	0.000000
MH-404	48.720000	6.380000	0.000000	0.000000	0.000000
MH-405	49.900000	12.400000	0.000000	0.000000	0.000000
MH-406	56.600000	5.400000	0.000000	0.000000	0.000000
MH-407	44.030000	14.230000	0.000000	0.000000	0.000000
MH-408	143.530000	6.470000	0.000000	0.000000	0.000000
MH-41	46.050000	6.550000	0.000000	0.000000	0.000000
MH-410	0.190000	9.350000	0.000000	0.000000	0.000000
MH-411	49.920000	8.220000	0.000000	0.000000	0.000000
MH-412	50.500000	7.990000	0.000000	0.000000	0.000000
MH-413	48.490000	8.800000	0.000000	0.000000	0.000000
MH-414	-0.360000	9.110000	0.000000	0.000000	0.000000
MH-415	48.050000	8.950000	0.000000	0.000000	0.000000
MH-416	12.220000	3.150000	0.000000	0.000000	0.000000
MH-417	47.000000	12.700000	0.000000	0.000000	0.000000
MH-418	34.060000	11.240000	0.000000	0.000000	0.000000
MH-419	38.100000	7.200000	0.000000	0.000000	0.000000
MH-42	42.610000	7.390000	0.000000	0.000000	0.000000
MH-420	40.230000	5.070000	0.000000	0.000000	0.000000
MH-421	43.460000	1.840000	0.000000	0.000000	0.000000
MH-422	48.460000	10.500000	0.000000	0.000000	0.000000
MH-423	49.960000	12.280000	0.000000	0.000000	0.000000
MH-424	51.320000	12.170000	0.000000	0.000000	0.000000
MH-425	52.670000	11.340000	0.000000	0.000000	0.000000
MH-426	53.170000	11.330000	0.000000	0.000000	0.000000
MH-427	53.640000	10.600000	0.000000	0.000000	0.000000
MH-428	54.540000	6.180000	0.000000	0.000000	0.000000
MH-429	54.300000	9.160000	0.000000	0.000000	0.000000
MH-43	49.500000	6.900000	0.000000	0.000000	0.000000
MH-430	54.530000	10.700000	0.000000	0.000000	0.000000
MH-432	48.940000	11.180000	0.000000	0.000000	0.000000
MH-433	50.190000	11.440000	0.000000	0.000000	0.000000
MH-434	51.090000	10.770000	0.000000	0.000000	0.000000
MH-435	51.440000	10.360000	0.000000	0.000000	0.000000
MH-436	53.730000	9.270000	0.000000	0.000000	0.000000
MH-437	55.390000	9.610000	0.000000	0.000000	0.000000
MH-438	57.050000	8.650000	0.000000	0.000000	0.000000
MH-439	49.300000	14.649375	0.000000	0.000000	0.000000
MH-44	43.310000	16.690000	0.000000	0.000000	0.000000
MH-440	54.290000	13.410000	0.000000	0.000000	0.000000
; Basin 2 Meter
MH-441	51.990000	13.145406	0.000000	0.000000	0.000000
MH-442	57.780000	11.620000	0.000000	0.000000	0.000000
MH-443	59.040000	11.660000	0.000000	0.000000	0.000000
MH-444	59.870000	11.530000	0.000000	0.000000	0.000000
MH-445	60.510000	11.190000	0.000000	0.000000	0.000000
MH-446	61.610000	12.431275	0.000000	0.000000	0.000000
MH-447	62.930000	13.331612	0.000000	0.000000	0.000000
MH-448	64.180000	15.583374	0.000000	0.000000	0.000000
MH-449	65.430000	18.576241	0.000000	0.000000	0.000000
MH-45	47.500000	6.500000	0.000000	0.000000	0.000000
MH-450	66.040000	18.185380	0.000000	0.000000	0.000000
MH-451	60.590000	10.510000	0.000000	0.000000	0.000000
MH-452	61.840000	10.460000	0.000000	0.000000	0.000000
MH-453	64.570000	11.130000	0.000000	0.000000	0.000000
MH-454	66.020000	11.180000	0.000000	0.000000	0.000000
MH-455	66.920000	11.780000	0.000000	0.000000	0.000000
MH-456	68.400000	14.100000	0.000000	0.000000	0.000000
MH-457	69.650000	13.350000	0.000000	0.000000	0.000000
MH-458	74.110000	11.090000	0.000000	0.000000	0.000000
MH-459	35.040000	9.360000	0.000000	0.000000	0.000000
MH-46	54.660000	15.340000	0.000000	0.000000	0.000000
; Basin 3 Meter
MH-460	33.740000	8.060000	0.000000	0.000000	0.000000
MH-461	31.680000	8.220000	0.000000	0.000000	0.000000
MH-462	28.960000	9.740000	0.000000	0.000000	0.000000
MH-463	26.600000	9.700000	0.000000	0.000000	0.000000
MH-464	23.990000	9.810000	0.000000	0.000000	0.000000
MH-465	20.810000	10.890000	0.000000	0.000000	0.000000
MH-466	17.630000	11.570000	0.000000	0.000000	0.000000
MH-467	14.450000	12.650000	0.000000	0.000000	0.000000
MH-468	11.470000	13.330000	0.000000	0.000000	0.000000
MH-469	9.570000	14.830000	0.000000	0.000000	0.000000
MH-47	43.570000	8.430000	0.000000	0.000000	0.000000
MH-470	6.920000	15.780000	0.000000	0.000000	0.000000
MH-471	4.170000	16.930000	0.000000	0.000000	0.000000
MH-472	2.960000	17.640000	0.000000	0.000000	0.000000
MH-473	2.880000	17.620000	0.000000	0.000000	0.000000
MH-474	1.950000	16.050000	0.000000	0.000000	0.000000
MH-475	1.750000	19.415236	0.000000	0.000000	0.000000
MH-476	1.470000	19.272161	0.000000	0.000000	0.000000
MH-477	0.860000	14.040000	0.000000	0.000000	0.000000
MH-478	0.080000	15.255586	0.000000	0.000000	0.000000
MH-479	-0.570000	9.770000	0.000000	0.000000	0.000000
MH-48	20.600000	5.500000	0.000000	0.000000	0.000000
MH-480	-0.980000	7.780000	0.000000	0.000000	0.000000
MH-481	-0.820000	11.436118	0.000000	0.000000	0.000000
MH-482	0.010000	14.319363	0.000000	0.000000	0.000000
MH-483	0.560000	14.912218	0.000000	0.000000	0.000000
MH-484	1.290000	16.938489	0.000000	0.000000	0.000000
MH-485	1.760000	18.670319	0.000000	0.000000	0.000000
MH-486	134.430000	15.593315	0.000000	0.000000	0.000000
MH-487	-2.380000	8.380000	0.000000	0.000000	0.000000
MH-49	48.340000	6.660000	0.000000	0.000000	0.000000
MH-5	10.520000	7.780000	0.000000	0.000000	0.000000
MH-50	46.010000	6.990000	0.000000	0.000000	0.000000
MH-51	59.800000	5.200000	0.000000	0.000000	0.000000
MH-52	44.790000	8.210000	0.000000	0.000000	0.000000
MH-53	44.700000	20.300000	0.000000	0.000000	0.000000
MH-54	45.640000	19.360000	0.000000	0.000000	0.000000
MH-55	46.590000	18.410000	0.000000	0.000000	0.000000
MH-56	47.580000	13.020000	0.000000	0.000000	0.000000
MH-57	17.950000	6.250000	0.000000	0.000000	0.000000
MH-58	17.240000	7.860000	0.000000	0.000000	0.000000
MH-59	18.460000	8.540000	0.000000	0.000000	0.000000
MH-6	8.750000	11.250000	0.000000	0.000000	0.000000
MH-60	58.490000	13.510000	0.000000	0.000000	0.000000
MH-61	52.900000	6.800000	0.000000	0.000000	0.000000
MH-62	51.250000	7.750000	0.000000	0.000000	0.000000
MH-63	46.970000	5.830000	0.000000	0.000000	0.000000
MH-64	49.600000	9.100000	0.000000	0.000000	0.000000
MH-65	49.060000	8.940000	0.000000	0.000000	0.000000
MH-66	18.930000	5.870000	0.000000	0.000000	0.000000
MH-67	17.330000	8.670000	0.000000	0.000000	0.000000
MH-68	48.430000	9.070000	0.000000	0.000000	0.000000
MH-69	48.050000	9.950000	0.000000	0.000000	0.000000
MH-7	10.110000	8.890000	0.000000	0.000000	0.000000
MH-70	20.310000	9.690000	0.000000	0.000000	0.000000
MH-71	47.540000	10.760000	0.000000	0.000000	0.000000
MH-72	22.250000	10.750000	0.000000	0.000000	0.000000
MH-73	51.550000	8.950000	0.000000	0.000000	0.000000
MH-74	50.760000	11.240000	0.000000	0.000000	0.000000
MH-75	64.820000	11.180000	0.000000	0.000000	0.000000
MH-76	49.410000	12.590000	0.000000	0.000000	0.000000
MH-77	20.330000	5.670000	0.000000	0.000000	0.000000
MH-78	24.210000	3.990000	0.000000	0.000000	0.000000
; Basin 1 Meter
MH-79	47.970000	13.030000	0.000000	0.000000	0.000000
MH-8	8.920000	8.080000	0.000000	0.000000	0.000000
MH-80	46.630000	13.370000	0.000000	0.000000	0.000000
MH-81	24.970000	8.580000	0.000000	0.000000	0.000000
MH-82	28.750000	3.950000	0.000000	0.000000	0.000000
MH-83	45.420000	10.080000	0.000000	0.000000	0.000000
MH-84	25.810000	9.990000	0.000000	0.000000	0.000000
MH-85	43.680000	8.320000	0.000000	0.000000	0.000000
MH-86	35.910000	9.090000	0.000000	0.000000	0.000000
MH-87	40.820000	9.180000	0.000000	0.000000	0.000000
MH-88	38.740000	9.260000	0.000000	0.000000	0.000000
MH-89	27.120000	10.380000	0.000000	0.000000	0.000000
MH-9	9.100000	11.900000	0.000000	0.000000	0.000000
MH-90	27.780000	8.120000	0.000000	0.000000	0.000000
MH-91	28.270000	8.730000	0.000000	0.000000	0.000000
MH-92	30.920000	13.780000	0.000000	0.000000	0.000000
MH-93	33.180000	8.120000	0.000000	0.000000	0.000000
MH-94	41.030000	8.170000	0.000000	0.000000	0.000000
MH-95	54.872000	12.028000	0.000000	0.000000	0.000000
MH-96	56.854000	9.646000	0.000000	0.000000	0.000000
MH-97	58.128000	10.372000	0.000000	0.000000	0.000000
MH-98	59.500000	4.700000	0.000000	0.000000	0.000000
MH-99	60.440000	4.660000	0.000000	0.000000	0.000000
PS-182	0.000000	40.000000	0.000000	0.000000	0.000000

[OUTFALLS]
PS-106	9.000000	FREE	NO
PS-169	-4.000000	FREE	NO
PS-323	-2.500000	FREE	NO
PS-409	-6.820000	FREE	NO

[DIVIDERS]

[STORAGE]

[CONDUITS]
DEVLIN - 1	PS-182	DEVLIN MH - 1	69.946588	0.013000	35.650000	34.430000	0.000000	0.000000
DEVLIN - 10	DEVLIN MH - 9	DEVLIN MH - 10	283.530999	0.013000	0.000000	0.000000	0.000000	0.000000
DEVLIN - 11	DEVLIN MH - 10	DEVLIN MH - 11	298.493206	0.013000	0.000000	0.000000	0.000000	0.000000
DEVLIN - 12	DEVLIN MH - 11	DEVLIN MH - 12	218.206290	0.013000	0.000000	0.000000	0.000000	0.000000
DEVLIN - 13	DEVLIN MH - 12	DEVLIN MH - 13	80.824383	0.013000	0.000000	0.360000	0.000000	0.000000
DEVLIN - 14	DEVLIN MH - 15	DEVLIN MH - 16	245.719920	0.013000	0.000000	0.000000	0.000000	0.000000
DEVLIN - 15	DEVLIN MH - 16	DEVLIN MH - 17	242.095492	0.013000	0.000000	0.000000	0.000000	0.000000
DEVLIN - 16	DEVLIN MH - 17	DEVLIN MH - 18	244.740641	0.013000	0.000000	0.000000	0.000000	0.000000
DEVLIN - 17	DEVLIN MH - 18	DEVLIN MH - 19	599.144156	0.013000	0.000000	0.000000	0.000000	0.000000
DEVLIN - 18	DEVLIN MH - 19	DEVLIN MH - 20	599.088968	0.013000	0.000000	0.000000	0.000000	0.000000
DEVLIN - 19	DEVLIN MH - 20	DEVLIN MH - 21	412.400377	0.013000	0.000000	0.000000	0.000000	0.000000
DEVLIN - 2	DEVLIN MH - 1	DEVLIN MH - 2	755.572602	0.013000	34.430000	0.000000	0.000000	0.000000
DEVLIN - 20	DEVLIN MH - 21	DEVLIN MH - 22	349.719456	0.013000	0.000000	0.000000	0.000000	0.000000
DEVLIN - 21	DEVLIN MH - 24	DEVLIN MH - 23	495.489301	0.013000	0.000000	0.000000	0.000000	0.000000
DEVLIN - 22	DEVLIN MH - 23	DEVLIN MH - 14	435.083025	0.013000	0.000000	0.000000	0.000000	0.000000
DEVLIN - 23	PS-182	DEVLIN MH - 1	69.946588	0.010000	0.000000	0.000000	0.000000	0.000000
DEVLIN - 24	DEVLIN MH - 14	MH-108	159.579224	0.013000	0.000000	0.000000	0.000000	0.000000
DEVLIN - 25	DEVLIN MH - 15	DEVLIN MH - 13	391.550740	0.013000	0.360000	0.000000	0.000000	0.000000
DEVLIN - 26	DEVLIN MH - 22	DEVLIN MH - 24	354.610636	0.013000	0.000000	0.000000	0.000000	0.000000