[OPTIONS]
;Option and Files Scenario Set: BASE
FLOW_UNITS		CFS
INFILTRATION		HORTON
FLOW_ROUTING		DYNWAVE
LINK_OFFSETS		DEPTH
MIN_SLOPE		0.000000
ALLOW_PONDING		NO
SKIP_STEADY_STATE 	NO
IGNORE_RAINFALL		NO
IGNORE_SNOWMELT		NO
IGNORE_GROUNDWATER	NO
IGNORE_QUALITY		NO

START_DATE		01/01/2002
START_TIME		00:00:00
REPORT_START_DATE	01/01/2002
REPORT_START_TIME	00:00
END_DATE		01/01/2002
END_TIME		24:00:00
SWEEP_START		01/01
SWEEP_END		12/31
DRY_DAYS		5.000000
REPORT_STEP		00:05:00
WET_STEP		01:00:00
DRY_STEP		23:00:00
ROUTING_STEP		300

INERTIAL_DAMPING	NONE
NORMAL_FLOW_LIMITED	BOTH
FORCE_MAIN_EQUATION	H-W
VARIABLE_STEP		0.750000
LENGTHENING_STEP	0
MIN_SURFAREA		0.000000
MINIMUM_STEP		0.5


[FILES]

[RAINGAGES]

[HYDROGRAPHS]

[TEMPERATURE]

[ADJUSTMENTS]

[SUBCATCHMENTS]

[SUBAREAS]

[INFILTRATION]

[AQUIFERS]

[GROUNDWATER]

[GWF]

[SNOWPACKS]

[JUNCTIONS]
SSM1	0.000000	124.190000	0.000000	0.000000	0.000000
SSM100	197.000000	9.720000	0.000000	0.000000	0.000000
SSM101	274.000000	6.000000	0.000000	0.000000	0.000000
SSM101.2	0.000000	0.000000	0.000000	0.000000	0.000000
SSM102	275.190000	9.310000	0.000000	0.000000	0.000000
SSM103	278.130000	4.870000	0.000000	0.000000	0.000000
SSM103.2	210.000000	7.270000	0.000000	0.000000	0.000000
SSM104	279.230000	4.270000	0.000000	0.000000	0.000000
SSM104.2	0.000000	0.000000	0.000000	0.000000	0.000000
SSM105	282.200000	7.400000	0.000000	0.000000	0.000000
SSM105.2	193.570000	12.570000	0.000000	0.000000	0.000000
SSM105A	0.000000	0.000000	0.000000	0.000000	0.000000
SSM105A.2	0.000000	203.300000	0.000000	0.000000	0.000000
SSM107	287.380000	3.940000	0.000000	0.000000	0.000000
SSM107.2	200.170000	7.380000	0.000000	0.000000	0.000000
SSM108	0.000000	183.570000	0.000000	0.000000	0.000000
SSM109	176.370000	7.080000	0.000000	0.000000	0.000000
SSM110	0.000000	0.000000	0.000000	0.000000	0.000000
SSM110A	186.500000	5.660000	0.000000	0.000000	0.000000
SSM110B	192.700000	5.240000	0.000000	0.000000	0.000000
SSM110C	203.520000	6.280000	0.000000	0.000000	0.000000
SSM111	170.350000	8.620000	0.000000	0.000000	0.000000
SSM112	0.000000	170.000000	0.000000	0.000000	0.000000
SSM113	0.000000	0.000000	0.000000	0.000000	0.000000
SSM114	183.600000	4.230000	0.000000	0.000000	0.000000
SSM115	174.390000	10.890000	0.000000	0.000000	0.000000
SSM116	174.530000	15.740000	0.000000	0.000000	0.000000
SSM117	173.520000	10.590000	0.000000	0.000000	0.000000
SSM118	173.520000	3.920000	0.000000	0.000000	0.000000
SSM122	116.210000	8.570000	0.000000	0.000000	0.000000
SSM124	115.270000	11.520000	0.000000	0.000000	0.000000
SSM124A	0.000000	0.000000	0.000000	0.000000	0.000000
SSM124B	0.000000	0.000000	0.000000	0.000000	0.000000
SSM125	114.170000	13.530000	0.000000	0.000000	0.000000
SSM126	117.640000	8.680000	0.000000	0.000000	0.000000
SSM127	173.460000	9.020000	0.000000	0.000000	0.000000
SSM128	173.880000	9.820000	0.000000	0.000000	0.000000
SSM128A	179.010000	9.950000	0.000000	0.000000	0.000000
SSM129	178.780000	5.900000	0.000000	0.000000	0.000000
SSM130	179.170000	9.850000	0.000000	0.000000	0.000000
SSM130A	0.000000	184.100000	0.000000	0.000000	0.000000
SSM130B	0.000000	0.000000	0.000000	0.000000	0.000000
SSM131	174.260000	10.340000	0.000000	0.000000	0.000000
SSM131A	0.000000	0.000000	0.000000	0.000000	0.000000
SSM131B	0.000000	194.280000	0.000000	0.000000	0.000000
SSM131C	0.000000	0.000000	0.000000	0.000000	0.000000
SSM132	113.860000	14.640000	0.000000	0.000000	0.000000
SSM133	114.680000	12.020000	0.000000	0.000000	0.000000
SSM133A	0.000000	127.800000	0.000000	0.000000	0.000000
SSM134	178.270000	6.890000	0.000000	0.000000	0.000000
SSM136	0.000000	0.000000	0.000000	0.000000	0.000000
SSM137	0.000000	185.800000	0.000000	0.000000	0.000000
SSM138	180.390000	6.730000	0.000000	0.000000	0.000000
SSM138.2	0.000000	0.000000	0.000000	0.000000	0.000000
SSM139	180.320000	6.680000	0.000000	0.000000	0.000000
SSM139A	188.200000	3.280000	0.000000	0.000000	0.000000
SSM140	179.580000	7.510000	0.000000	0.000000	0.000000
SSM141	180.100000	11.380000	0.000000	0.000000	0.000000
SSM142	0.000000	193.410000	0.000000	0.000000	0.000000
SSM142A	0.000000	0.000000	0.000000	0.000000	0.000000
SSM143	0.000000	181.400000	0.000000	0.000000	0.000000
SSM143.2	0.000000	0.000000	0.000000	0.000000	0.000000
SSM143A	0.000000	0.000000	0.000000	0.000000	0.000000
SSM143A.2	0.000000	0.000000	0.000000	0.000000	0.000000
SSM144	183.520000	8.130000	0.000000	0.000000	0.000000
SSM144.2	183.520000	8.130000	0.000000	0.000000	0.000000
SSM144A	0.000000	0.000000	0.000000	0.000000	0.000000
SSM145	181.620000	15.000000	0.000000	0.000000	0.000000
SSM146	180.100000	11.240000	0.000000	0.000000	0.000000
SSM147.2	188.070000	6.210000	0.000000	0.000000	0.000000
SSM148	0.000000	185.600000	0.000000	0.000000	0.000000
SSM149	0.000000	191.420000	0.000000	0.000000	0.000000
SSM15	114.800000	12.330000	0.000000	0.000000	0.000000
SSM150	0.000000	0.000000	0.000000	0.000000	0.000000
SSM153	112.260000	16.040000	0.000000	0.000000	0.000000
SSM154	264.570000	4.070000	0.000000	0.000000	0.000000
SSM155	264.270000	6.080000	0.000000	0.000000	0.000000
SSM156	263.290000	6.950000	0.000000	0.000000	0.000000
SSM157	262.710000	6.000000	0.000000	0.000000	0.000000
SSM158	261.570000	7.200000	0.000000	0.000000	0.000000
SSM159	265.620000	4.380000	0.000000	0.000000	0.000000
SSM160	268.570000	7.230000	0.000000	0.000000	0.000000
SSM161	121.470000	5.480000	0.000000	0.000000	0.000000
SSM162	277.250000	2.750000	0.000000	0.000000	0.000000
SSM163	268.220000	11.380000	0.000000	0.000000	0.000000
SSM164	269.120000	6.500000	0.000000	0.000000	0.000000
SSM166	284.610000	7.690000	0.000000	0.000000	0.000000
SSM167	260.200000	7.800000	0.000000	0.000000	0.000000
SSM168	0.000000	269.800000	0.000000	0.000000	0.000000
SSM169	258.400000	6.600000	0.000000	0.000000	0.000000
SSM16A	113.580000	13.630000	0.000000	0.000000	0.000000
SSM16B	112.960000	14.440000	0.000000	0.000000	0.000000
SSM170	251.690000	4.810000	0.000000	0.000000	0.000000
SSM171	0.000000	0.000000	0.000000	0.000000	0.000000
SSM172	243.400000	6.100000	0.000000	0.000000	0.000000
SSM173	228.650000	4.680000	0.000000	0.000000	0.000000
SSM174	224.960000	4.920000	0.000000	0.000000	0.000000
SSM175	212.310000	6.250000	0.000000	0.000000	0.000000
SSM177	208.150000	0.000000	0.000000	0.000000	0.000000
SSM178	209.040000	11.040000	0.000000	0.000000	0.000000
SSM179	217.000000	3.590000	0.000000	0.000000	0.000000
SSM180	0.000000	211.050000	0.000000	0.000000	0.000000
SSM181	212.500000	8.280000	0.000000	0.000000	0.000000
SSM182	0.000000	0.000000	0.000000	0.000000	0.000000
SSM183	217.900000	5.160000	0.000000	0.000000	0.000000
SSM184	218.350000	4.950000	0.000000	0.000000	0.000000
SSM185	205.100000	0.000000	0.000000	0.000000	0.000000
SSM186	202.600000	-202.600000	0.000000	0.000000	0.000000
SSM188	200.400000	13.560000	0.000000	0.000000	0.000000
SSM188A	209.850000	-209.850000	0.000000	0.000000	0.000000
SSM189	199.400000	14.950000	0.000000	0.000000	0.000000
SSM192	191.000000	12.260000	0.000000	0.000000	0.000000
SSM193	188.900000	5.810000	0.000000	0.000000	0.000000
SSM194	176.660000	0.000000	0.000000	0.000000	0.000000
SSM195	178.400000	0.000000	0.000000	0.000000	0.000000
SSM196	178.530000	6.470000	0.000000	0.000000	0.000000
SSM197	175.100000	13.450000	0.000000	0.000000	0.000000
SSM197A	0.000000	0.000000	0.000000	0.000000	0.000000
SSM198	173.590000	11.850000	0.000000	0.000000	0.000000
SSM199	173.380000	6.420000	0.000000	0.000000	0.000000
SSM1A	122.340000	-122.340000	0.000000	0.000000	0.000000
SSM200	120.430000	6.480000	0.000000	0.000000	0.000000
SSM201	261.230000	6.720000	0.000000	0.000000	0.000000
SSM205	174.730000	7.720000	0.000000	0.000000	0.000000
SSM206	174.670000	6.140000	0.000000	0.000000	0.000000
SSM207	158.000000	10.500000	0.000000	0.000000	0.000000
SSM208	162.140000	8.740000	0.000000	0.000000	0.000000
SSM209	163.790000	8.200000	0.000000	0.000000	0.000000
SSM210	164.560000	8.320000	0.000000	0.000000	0.000000
SSM211	170.000000	11.500000	0.000000	0.000000	0.000000
SSM212	171.500000	10.500000	0.000000	0.000000	0.000000
SSM213	174.000000	9.000000	0.000000	0.000000	0.000000
SSM214	174.000000	8.600000	0.000000	0.000000	0.000000
SSM215	143.500000	13.940000	0.000000	0.000000	0.000000
SSM216	142.500000	8.530000	0.000000	0.000000	0.000000
SSM217	127.980000	14.790000	0.000000	0.000000	0.000000
SSM218	0.000000	141.000000	0.000000	0.000000	0.000000
SSM219	139.030000	5.970000	0.000000	0.000000	0.000000
SSM219A	129.070000	5.930000	0.000000	0.000000	0.000000
SSM220	135.580000	6.420000	0.000000	0.000000	0.000000
SSM221	157.680000	10.120000	0.000000	0.000000	0.000000
SSM222	168.250000	17.000000	0.000000	0.000000	0.000000
SSM223	159.580000	12.420000	0.000000	0.000000	0.000000
SSM225	160.300000	6.200000	0.000000	0.000000	0.000000
SSM228	122.740000	5.260000	0.000000	0.000000	0.000000
SSM228A	123.860000	7.500000	0.000000	0.000000	0.000000
SSM229	0.000000	124.520000	0.000000	0.000000	0.000000
SSM230	0.000000	125.900000	0.000000	0.000000	0.000000
SSM231	126.630000	10.530000	0.000000	0.000000	0.000000
SSM232	135.980000	5.300000	0.000000	0.000000	0.000000
SSM233	120.160000	17.590000	0.000000	0.000000	0.000000
SSM233A	0.000000	0.000000	0.000000	0.000000	0.000000
SSM234	126.350000	9.590000	0.000000	0.000000	0.000000
SSM235	127.030000	12.350000	0.000000	0.000000	0.000000
SSM236	0.000000	0.000000	0.000000	0.000000	0.000000
SSM237A	0.000000	0.000000	0.000000	0.000000	0.000000
SSM24	115.160000	11.540000	0.000000	0.000000	0.000000
SSM240	147.000000	8.800000	0.000000	0.000000	0.000000
SSM242	0.000000	175.500000	0.000000	0.000000	0.000000
SSM243	137.000000	9.200000	0.000000	0.000000	0.000000
SSM243.2	0.000000	126.800000	0.000000	0.000000	0.000000
SSM244	180.200000	7.800000	0.000000	0.000000	0.000000
SSM245	135.400000	6.700000	0.000000	0.000000	0.000000
SSM249	130.500000	8.760000	0.000000	0.000000	0.000000
SSM25	112.600000	14.200000	0.000000	0.000000	0.000000
SSM251	135.400000	5.950000	0.000000	0.000000	0.000000
SSM254A	0.000000	0.000000	0.000000	0.000000	0.000000
SSM255	127.600000	6.790000	0.000000	0.000000	0.000000
SSM256	128.900000	5.790000	0.000000	0.000000	0.000000
SSM256A	0.000000	0.000000	0.000000	0.000000	0.000000
SSM257	132.420000	3.200000	0.000000	0.000000	0.000000
SSM258	134.900000	6.730000	0.000000	0.000000	0.000000
SSM259	0.000000	151.300000	0.000000	0.000000	0.000000
SSM26	111.420000	15.480000	0.000000	0.000000	0.000000
SSM260	122.700000	10.700000	0.000000	0.000000	0.000000
SSM260A	121.900000	7.920000	0.000000	0.000000	0.000000
SSM262	122.210000	5.980000	0.000000	0.000000	0.000000
SSM262A	122.040000	8.760000	0.000000	0.000000	0.000000
SSM263	121.750000	12.890000	0.000000	0.000000	0.000000
SSM264	121.400000	11.730000	0.000000	0.000000	0.000000
SSM264A	0.000000	0.000000	0.000000	0.000000	0.000000
SSM265	124.310000	5.290000	0.000000	0.000000	0.000000
SSM266	124.520000	3.150000	0.000000	0.000000	0.000000
SSM267	127.450000	3.030000	0.000000	0.000000	0.000000
SSM268	127.850000	2.980000	0.000000	0.000000	0.000000
SSM269	128.200000	2.600000	0.000000	0.000000	0.000000
SSM27	111.250000	14.750000	0.000000	0.000000	0.000000
SSM270A	0.000000	0.000000	0.000000	0.000000	0.000000
SSM271	177.960000	-45.330000	0.000000	0.000000	0.000000
SSM272	115.760000	12.600000	0.000000	0.000000	0.000000
SSM272A	0.000000	0.000000	0.000000	0.000000	0.000000
SSM272B	0.000000	0.000000	0.000000	0.000000	0.000000
SSM273	114.400000	10.980000	0.000000	0.000000	0.000000
SSM274	112.860000	14.660000	0.000000	0.000000	0.000000
SSM274A	0.000000	0.000000	0.000000	0.000000	0.000000
SSM275	111.930000	0.000000	0.000000	0.000000	0.000000
SSM278	121.000000	6.030000	0.000000	0.000000	0.000000
SSM279	118.800000	8.450000	0.000000	0.000000	0.000000
SSM27A	0.000000	0.000000	0.000000	0.000000	0.000000
SSM280	121.780000	5.530000	0.000000	0.000000	0.000000
SSM281	108.060000	19.240000	0.000000	0.000000	0.000000
SSM281C	0.000000	0.000000	0.000000	0.000000	0.000000
SSM282	108.640000	19.010000	0.000000	0.000000	0.000000
SSM283	109.320000	18.480000	0.000000	0.000000	0.000000
SSM283A	0.000000	0.000000	0.000000	0.000000	0.000000
SSM283B	0.000000	0.000000	0.000000	0.000000	0.000000
SSM283C	0.000000	0.000000	0.000000	0.000000	0.000000
SSM284	109.550000	18.430000	0.000000	0.000000	0.000000
SSM284A	0.000000	0.000000	0.000000	0.000000	0.000000
SSM285	109.760000	-109.760000	0.000000	0.000000	0.000000
SSM288	119.030000	6.330000	0.000000	0.000000	0.000000
SSM290	122.120000	5.280000	0.000000	0.000000	0.000000
SSM291	0.000000	128.920000	0.000000	0.000000	0.000000
SSM292	125.000000	3.600000	0.000000	0.000000	0.000000
SSM293	125.100000	3.250000	0.000000	0.000000	0.000000
SSM294	125.510000	3.180000	0.000000	0.000000	0.000000
SSM295	110.850000	17.890000	0.000000	0.000000	0.000000
SSM297	119.300000	7.900000	0.000000	0.000000	0.000000
SSM3	0.000000	120.310000	0.000000	0.000000	0.000000
SSM300	119.600000	10.250000	0.000000	0.000000	0.000000
SSM301	120.100000	10.500000	0.000000	0.000000	0.000000
SSM302	120.330000	11.420000	0.000000	0.000000	0.000000
SSM305	0.000000	0.000000	0.000000	0.000000	0.000000
SSM305A	0.000000	0.000000	0.000000	0.000000	0.000000
SSM305B	0.000000	0.000000	0.000000	0.000000	0.000000
SSM306	124.100000	4.900000	0.000000	0.000000	0.000000
SSM307	124.400000	4.600000	0.000000	0.000000	0.000000
SSM308	136.620000	6.010000	0.000000	0.000000	0.000000
SSM309	137.810000	10.190000	0.000000	0.000000	0.000000
SSM310	138.000000	28.000000	0.000000	0.000000	0.000000
SSM312	138.000000	10.000000	0.000000	0.000000	0.000000
SSM312A	0.000000	0.000000	0.000000	0.000000	0.000000
SSM313	130.000000	7.700000	0.000000	0.000000	0.000000
SSM315	131.770000	6.230000	0.000000	0.000000	0.000000
SSM315A	0.000000	0.000000	0.000000	0.000000	0.000000
SSM315B	0.000000	0.000000	0.000000	0.000000	0.000000
SSM316	135.000000	4.500000	0.000000	0.000000	0.000000
SSM317	138.200000	6.200000	0.000000	0.000000	0.000000
SSM318	144.540000	8.460000	0.000000	0.000000	0.000000
SSM319	145.070000	11.930000	0.000000	0.000000	0.000000
SSM320	145.800000	9.200000	0.000000	0.000000	0.000000
SSM325	141.780000	11.220000	0.000000	0.000000	0.000000
SSM325A	0.000000	0.000000	0.000000	0.000000	0.000000
SSM330	131.530000	7.290000	0.000000	0.000000	0.000000
SSM331	133.400000	7.200000	0.000000	0.000000	0.000000
SSM333	144.700000	12.340000	0.000000	0.000000	0.000000
SSM334	141.400000	6.980000	0.000000	0.000000	0.000000
SSM335	151.000000	7.200000	0.000000	0.000000	0.000000
SSM336	143.440000	10.560000	0.000000	0.000000	0.000000
SSM338	147.000000	10.830000	0.000000	0.000000	0.000000
SSM340	156.230000	11.770000	0.000000	0.000000	0.000000
SSM341	157.400000	10.000000	0.000000	0.000000	0.000000
SSM344	171.000000	6.980000	0.000000	0.000000	0.000000
SSM35	120.090000	6.410000	0.000000	0.000000	0.000000
SSM350	146.130000	7.360000	0.000000	0.000000	0.000000
SSM350A	0.000000	0.000000	0.000000	0.000000	0.000000
SSM350B	0.000000	0.000000	0.000000	0.000000	0.000000
SSM350C	0.000000	0.000000	0.000000	0.000000	0.000000
SSM351	149.410000	4.940000	0.000000	0.000000	0.000000
SSM352	150.500000	5.970000	0.000000	0.000000	0.000000
SSM352A	0.000000	0.000000	0.000000	0.000000	0.000000
SSM352B	0.000000	0.000000	0.000000	0.000000	0.000000
SSM352C	0.000000	0.000000	0.000000	0.000000	0.000000
SSM352D	0.000000	0.000000	0.000000	0.000000	0.000000
SSM352E	0.000000	0.000000	0.000000	0.000000	0.000000
SSM352F	0.000000	0.000000	0.000000	0.000000	0.000000
SSM352G	0.000000	0.000000	0.000000	0.000000	0.000000
SSM352H	0.000000	0.000000	0.000000	0.000000	0.000000
SSM352Y	0.000000	0.000000	0.000000	0.000000	0.000000
SSM352Z	0.000000	0.000000	0.000000	0.000000	0.000000
SSM36	120.630000	6.570000	0.000000	0.000000	0.000000
SSM367	145.000000	8.500000	0.000000	0.000000	0.000000
SSM367A	0.000000	0.000000	0.000000	0.000000	0.000000
SSM367B	0.000000	0.000000	0.000000	0.000000	0.000000
SSM367C	0.000000	0.000000	0.000000	0.000000	0.000000
SSM368	143.370000	9.600000	0.000000	0.000000	0.000000
SSM37	121.500000	5.830000	0.000000	0.000000	0.000000
SSM370	146.000000	-146.000000	0.000000	0.000000	0.000000
SSM371	145.710000	17.290000	0.000000	0.000000	0.000000
SSM372	147.340000	7.760000	0.000000	0.000000	0.000000
SSM373	150.000000	6.700000	0.000000	0.000000	0.000000
SSM374	152.020000	9.980000	0.000000	0.000000	0.000000
SSM374A	0.000000	0.000000	0.000000	0.000000	0.000000
SSM374B	0.000000	0.000000	0.000000	0.000000	0.000000
SSM374C	0.000000	0.000000	0.000000	0.000000	0.000000
SSM375	139.620000	15.980000	0.000000	0.000000	0.000000
SSM376	145.000000	10.400000	0.000000	0.000000	0.000000
SSM376A	0.000000	0.000000	0.000000	0.000000	0.000000
SSM376B	0.000000	0.000000	0.000000	0.000000	0.000000
SSM377	137.720000	17.880000	0.000000	0.000000	0.000000
SSM377A	0.000000	0.000000	0.000000	0.000000	0.000000
SSM378	140.260000	7.840000	0.000000	0.000000	0.000000
SSM379	140.780000	5.420000	0.000000	0.000000	0.000000
SSM380	135.060000	7.190000	0.000000	0.000000	0.000000
SSM383	144.200000	10.100000	0.000000	0.000000	0.000000
SSM384	143.520000	10.380000	0.000000	0.000000	0.000000
SSM385	142.840000	9.260000	0.000000	0.000000	0.000000
SSM385A	0.000000	0.000000	0.000000	0.000000	0.000000
SSM386	148.800000	7.200000	0.000000	0.000000	0.000000
SSM386A	0.000000	0.000000	0.000000	0.000000	0.000000
SSM386B	0.000000	0.000000	0.000000	0.000000	0.000000
SSM386C	0.000000	0.000000	0.000000	0.000000	0.000000
SSM387	151.610000	8.490000	0.000000	0.000000	0.000000
SSM389	140.040000	9.560000	0.000000	0.000000	0.000000
SSM39	120.170000	5.330000	0.000000	0.000000	0.000000
SSM396	196.000000	8.000000	0.000000	0.000000	0.000000
SSM397	205.800000	8.500000	0.000000	0.000000	0.000000
SSM398	208.000000	10.000000	0.000000	0.000000	0.000000
SSM4	119.680000	6.120000	0.000000	0.000000	0.000000
SSM40	119.200000	7.580000	0.000000	0.000000	0.000000
SSM400	210.000000	9.000000	0.000000	0.000000	0.000000
SSM401	207.890000	10.510000	0.000000	0.000000	0.000000
SSM403	211.680000	12.820000	0.000000	0.000000	0.000000
SSM404	212.360000	11.640000	0.000000	0.000000	0.000000
SSM405	212.730000	11.770000	0.000000	0.000000	0.000000
SSM406	213.000000	11.200000	0.000000	0.000000	0.000000
SSM407	218.000000	6.600000	0.000000	0.000000	0.000000
SSM408	207.000000	3.970000	0.000000	0.000000	0.000000
SSM409	196.890000	12.590000	0.000000	0.000000	0.000000
SSM410	195.010000	4.020000	0.000000	0.000000	0.000000
SSM411	205.500000	9.100000	0.000000	0.000000	0.000000
SSM412	191.000000	10.000000	0.000000	0.000000	0.000000
SSM413	164.000000	8.100000	0.000000	0.000000	0.000000
SSM415	217.000000	3.840000	0.000000	0.000000	0.000000
SSM416	213.190000	8.070000	0.000000	0.000000	0.000000
SSM417	221.300000	8.700000	0.000000	0.000000	0.000000
SSM418	245.800000	7.020000	0.000000	0.000000	0.000000
SSM420	0.000000	0.000000	0.000000	0.000000	0.000000
SSM421	264.600000	6.740000	0.000000	0.000000	0.000000
SSM422	282.400000	6.890000	0.000000	0.000000	0.000000
SSM422A	0.000000	0.000000	0.000000	0.000000	0.000000
SSM424	145.210000	9.480000	0.000000	0.000000	0.000000
SSM427	127.000000	8.450000	0.000000	0.000000	0.000000
SSM428	0.000000	117.420000	0.000000	0.000000	0.000000
SSM429	0.000000	118.000000	0.000000	0.000000	0.000000
SSM430	0.000000	116.440000	0.000000	0.000000	0.000000
SSM431	0.000000	0.000000	0.000000	0.000000	0.000000
SSM433	0.000000	118.900000	0.000000	0.000000	0.000000
SSM435	115.630000	11.320000	0.000000	0.000000	0.000000
SSM436	116.030000	10.920000	0.000000	0.000000	0.000000
SSM438	117.160000	9.990000	0.000000	0.000000	0.000000
SSM439	117.560000	9.410000	0.000000	0.000000	0.000000
SSM440	119.460000	7.550000	0.000000	0.000000	0.000000
SSM440B	0.000000	0.000000	0.000000	0.000000	0.000000
SSM444	119.060000	9.040000	0.000000	0.000000	0.000000
SSM445	0.000000	128.300000	0.000000	0.000000	0.000000
SSM45	108.360000	18.840000	0.000000	0.000000	0.000000
SSM451	116.840000	9.510000	0.000000	0.000000	0.000000
SSM453	128.090000	2.450000	0.000000	0.000000	0.000000
SSM454	127.250000	3.250000	0.000000	0.000000	0.000000
SSM455	108.070000	18.360000	0.000000	0.000000	0.000000
SSM458	118.360000	9.020000	0.000000	0.000000	0.000000
SSM45A	0.000000	0.000000	0.000000	0.000000	0.000000
SSM46	111.720000	15.220000	0.000000	0.000000	0.000000
SSM461	0.000000	0.000000	0.000000	0.000000	0.000000
SSM464	0.000000	0.000000	0.000000	0.000000	0.000000
SSM465	127.500000	13.700000	0.000000	0.000000	0.000000
SSM466	133.830000	8.670000	0.000000	0.000000	0.000000
SSM467	137.290000	9.760000	0.000000	0.000000	0.000000
SSM468	140.000000	10.000000	0.000000	0.000000	0.000000
SSM469	142.540000	9.960000	0.000000	0.000000	0.000000
SSM470	147.320000	9.310000	0.000000	0.000000	0.000000
SSM471	148.420000	9.680000	0.000000	0.000000	0.000000
SSM472	150.500000	9.640000	0.000000	0.000000	0.000000
SSM473	152.590000	8.760000	0.000000	0.000000	0.000000
SSM474	128.000000	-128.000000	0.000000	0.000000	0.000000
SSM475	128.500000	11.700000	0.000000	0.000000	0.000000
SSM475A	0.000000	0.000000	0.000000	0.000000	0.000000
SSM476	129.060000	10.940000	0.000000	0.000000	0.000000
SSM476A	0.000000	0.000000	0.000000	0.000000	0.000000
SSM477	129.310000	10.790000	0.000000	0.000000	0.000000
SSM478	129.710000	9.690000	0.000000	0.000000	0.000000
SSM479	130.050000	9.640000	0.000000	0.000000	0.000000
SSM48	115.400000	11.150000	0.000000	0.000000	0.000000
SSM480	130.790000	7.380000	0.000000	0.000000	0.000000
SSM481	131.250000	7.280000	0.000000	0.000000	0.000000
SSM482	131.490000	8.540000	0.000000	0.000000	0.000000
SSM483	132.140000	10.720000	0.000000	0.000000	0.000000
SSM484	138.240000	11.490000	0.000000	0.000000	0.000000
SSM485	142.640000	2.380000	0.000000	0.000000	0.000000
SSM486	150.780000	14.220000	0.000000	0.000000	0.000000
SSM487	154.730000	12.720000	0.000000	0.000000	0.000000
SSM488	160.810000	10.030000	0.000000	0.000000	0.000000
SSM489	169.810000	6.640000	0.000000	0.000000	0.000000
SSM49	113.400000	12.840000	0.000000	0.000000	0.000000
SSM490	170.420000	9.490000	0.000000	0.000000	0.000000
SSM492	0.000000	0.000000	0.000000	0.000000	0.000000
SSM493	0.000000	0.000000	0.000000	0.000000	0.000000
SSM494	0.000000	0.000000	0.000000	0.000000	0.000000
SSM496	0.000000	0.000000	0.000000	0.000000	0.000000
SSM497	0.000000	0.000000	0.000000	0.000000	0.000000
SSM498	0.000000	0.000000	0.000000	0.000000	0.000000
SSM498A	0.000000	0.000000	0.000000	0.000000	0.000000
SSM49A	0.000000	0.000000	0.000000	0.000000	0.000000
SSM5	118.000000	8.000000	0.000000	0.000000	0.000000
SSM50	118.260000	8.240000	0.000000	0.000000	0.000000
SSM507	194.570000	7.600000	0.000000	0.000000	0.000000
SSM508	190.600000	9.570000	0.000000	0.000000	0.000000
SSM509	189.100000	9.410000	0.000000	0.000000	0.000000
SSM51	109.760000	17.330000	0.000000	0.000000	0.000000
SSM510	187.400000	8.680000	0.000000	0.000000	0.000000
SSM510A	0.000000	0.000000	0.000000	0.000000	0.000000
SSM511	182.100000	11.110000	0.000000	0.000000	0.000000
SSM512	176.590000	10.410000	0.000000	0.000000	0.000000
SSM513	169.310000	9.050000	0.000000	0.000000	0.000000
SSM514	161.800000	11.140000	0.000000	0.000000	0.000000
SSM514A	0.000000	0.000000	0.000000	0.000000	0.000000
SSM515	157.770000	12.190000	0.000000	0.000000	0.000000
SSM516	155.770000	11.450000	0.000000	0.000000	0.000000
SSM517	153.950000	10.450000	0.000000	0.000000	0.000000
SSM518	133.500000	8.440000	0.000000	0.000000	0.000000
SSM519	134.590000	11.430000	0.000000	0.000000	0.000000
SSM52	0.000000	126.100000	0.000000	0.000000	0.000000
SSM520	135.430000	9.420000	0.000000	0.000000	0.000000
SSM521	136.060000	8.770000	0.000000	0.000000	0.000000
SSM522	136.520000	13.020000	0.000000	0.000000	0.000000
SSM523	137.170000	25.770000	0.000000	0.000000	0.000000
SSM524	157.070000	6.850000	0.000000	0.000000	0.000000
SSM524A	0.000000	0.000000	0.000000	0.000000	0.000000
SSM524B	0.000000	0.000000	0.000000	0.000000	0.000000
SSM524C	0.000000	0.000000	0.000000	0.000000	0.000000
SSM524D	0.000000	0.000000	0.000000	0.000000	0.000000
SSM525	153.870000	9.420000	0.000000	0.000000	0.000000
SSM525A	0.000000	0.000000	0.000000	0.000000	0.000000
SSM525B	0.000000	0.000000	0.000000	0.000000	0.000000
SSM525C	0.000000	0.000000	0.000000	0.000000	0.000000
SSM526	150.000000	10.610000	0.000000	0.000000	0.000000
SSM527	147.940000	11.580000	0.000000	0.000000	0.000000
SSM528	146.100000	21.850000	0.000000	0.000000	0.000000
SSM529	145.500000	11.180000	0.000000	0.000000	0.000000
SSM52C	110.460000	15.040000	0.000000	0.000000	0.000000
SSM53	110.720000	15.580000	0.000000	0.000000	0.000000
SSM55	124.070000	5.990000	0.000000	0.000000	0.000000
SSM57	106.850000	19.450000	0.000000	0.000000	0.000000
SSM57A	0.000000	0.000000	0.000000	0.000000	0.000000
SSM6	117.090000	8.910000	0.000000	0.000000	0.000000
SSM60	110.920000	15.970000	0.000000	0.000000	0.000000
SSM61	116.800000	8.970000	0.000000	0.000000	0.000000
SSM62	112.250000	14.800000	0.000000	0.000000	0.000000
SSM63	121.040000	6.540000	0.000000	0.000000	0.000000
SSM64	113.060000	14.250000	0.000000	0.000000	0.000000
SSM65	114.750000	14.050000	0.000000	0.000000	0.000000
SSM67	122.390000	7.210000	0.000000	0.000000	0.000000
SSM68	120.000000	8.270000	0.000000	0.000000	0.000000
SSM69	122.600000	9.670000	0.000000	0.000000	0.000000
SSM69A	0.000000	0.000000	0.000000	0.000000	0.000000
SSM6A	0.000000	0.000000	0.000000	0.000000	0.000000
SSM6B	0.000000	0.000000	0.000000	0.000000	0.000000
SSM6C	0.000000	0.000000	0.000000	0.000000	0.000000
SSM702	131.860000	6.140000	0.000000	0.000000	0.000000
SSM703	132.120000	6.480000	0.000000	0.000000	0.000000
SSM704	133.430000	5.670000	0.000000	0.000000	0.000000
SSM704A	0.000000	0.000000	0.000000	0.000000	0.000000
SSM705	137.040000	10.960000	0.000000	0.000000	0.000000
SSM711	157.850000	6.650000	0.000000	0.000000	0.000000
SSM712	156.950000	5.950000	0.000000	0.000000	0.000000
SSM716	0.000000	0.000000	0.000000	0.000000	0.000000
SSM716A	0.000000	0.000000	0.000000	0.000000	0.000000
SSM716B	0.000000	0.000000	0.000000	0.000000	0.000000
SSM716C	0.000000	0.000000	0.000000	0.000000	0.000000
SSM716D	0.000000	0.000000	0.000000	0.000000	0.000000
SSM716E	0.000000	0.000000	0.000000	0.000000	0.000000
SSM716F	0.000000	0.000000	0.000000	0.000000	0.000000
SSM731	141.690000	9.810000	0.000000	0.000000	0.000000
SSM732	140.760000	11.140000	0.000000	0.000000	0.000000
SSM733	143.600000	7.500000	0.000000	0.000000	0.000000
SSM734	142.500000	10.500000	0.000000	0.000000	0.000000
SSM735	143.200000	11.500000	0.000000	0.000000	0.000000
SSM736	139.310000	8.590000	0.000000	0.000000	0.000000
SSM743	0.000000	140.800000	0.000000	0.000000	0.000000
SSM75	118.230000	11.690000	0.000000	0.000000	0.000000
SSM77	127.000000	3.820000	0.000000	0.000000	0.000000
SSM78	0.000000	130.800000	0.000000	0.000000	0.000000
SSM79	119.750000	8.520000	0.000000	0.000000	0.000000
SSM79-2	0.000000	114.110000	0.000000	0.000000	0.000000
SSM79.1	0.000000	113.800000	0.000000	0.000000	0.000000
SSM79.2	0.000000	113.450000	0.000000	0.000000	0.000000
SSM80	0.000000	113.150000	0.000000	0.000000	0.000000
SSM81	0.000000	112.680000	0.000000	0.000000	0.000000
SSM82	127.000000	1.830000	0.000000	0.000000	0.000000
SSM83	120.310000	7.600000	0.000000	0.000000	0.000000
SSM83A	0.000000	0.000000	0.000000	0.000000	0.000000
SSM84	0.000000	127.990000	0.000000	0.000000	0.000000
SSM843	142.250000	9.750000	0.000000	0.000000	0.000000
SSM85	123.000000	5.710000	0.000000	0.000000	0.000000
SSM86	124.270000	6.300000	0.000000	0.000000	0.000000
SSM86A	123.000000	5.710000	0.000000	0.000000	0.000000
SSM87	0.000000	130.840000	0.000000	0.000000	0.000000
SSM88	130.500000	4.620000	0.000000	0.000000	0.000000
SSM89	0.000000	138.150000	0.000000	0.000000	0.000000
SSM90	0.000000	0.000000	0.000000	0.000000	0.000000
SSM91	0.000000	0.000000	0.000000	0.000000	0.000000
SSM92	0.000000	0.000000	0.000000	0.000000	0.000000
SSM93	172.130000	7.400000	0.000000	0.000000	0.000000
SSM94	177.420000	5.350000	0.000000	0.000000	0.000000
SSM95	219.200000	0.000000	0.000000	0.000000	0.000000
SSM97	214.490000	0.000000	0.000000	0.000000	0.000000
SSM98	203.690000	7.830000	0.000000	0.000000	0.000000
SSM99	203.000000	6.730000	0.000000	0.000000	0.000000
SSMA	0.000000	0.000000	0.000000	0.000000	0.000000
SSMB	0.000000	0.000000	0.000000	0.000000	0.000000
SSMC	0.000000	0.000000	0.000000	0.000000	0.000000
SSMD	0.000000	0.000000	0.000000	0.000000	0.000000
SSME	0.000000	0.000000	0.000000	0.000000	0.000000
SSMF	0.000000	0.000000	0.000000	0.000000	0.000000
SSMG	0.000000	0.000000	0.000000	0.000000	0.000000
SSMH	0.000000	0.000000	0.000000	0.000000	0.000000
SSMI	0.000000	0.000000	0.000000	0.000000	0.000000
SSMJ	0.000000	0.000000	0.000000	0.000000	0.000000
SSMK	0.000000	0.000000	0.000000	0.000000	0.000000
SSML	0.000000	0.000000	0.000000	0.000000	0.000000
SSMM	0.000000	0.000000	0.000000	0.000000	0.000000
SSMN	0.000000	0.000000	0.000000	0.000000	0.000000
SSMO	0.000000	0.000000	0.000000	0.000000	0.000000
SSMP	0.000000	0.000000	0.000000	0.000000	0.000000
SSMQ	0.000000	0.000000	0.000000	0.000000	0.000000
SSMR	0.000000	0.000000	0.000000	0.000000	0.000000
SSMS	0.000000	0.000000	0.000000	0.000000	0.000000
SSMT	0.000000	0.000000	0.000000	0.000000	0.000000
SSMU	0.000000	0.000000	0.000000	0.000000	0.000000

[OUTFALLS]
SSM203	173.040000	FREE	NO
SSM369	142.340000	FREE	NO
SSM58	106.390000	FREE	NO

[DIVIDERS]
; Climate Set: BASE
SSM409A	0.000000	409A	TABULAR	SSM409A_DIVERSION	0.000000	0.000000	0.000000	0.000000

[STORAGE]

[CONDUITS]
1	SSM1	SSM3	182.000000	0.015000	0.000000	0.000000	0.000000	0.000000
100	SSM100	SSM114	194.000000	0.015000	0.000000	0.000000	0.000000	0.000000
101	SSM101	SSM163	127.000000	0.010000	0.000000	0.000000	0.000000	0.000000
101.2	SSM101.2	SSM100	106.007596	0.015000	0.000000	0.000000	0.000000	0.000000
102	SSM102	SSM101	114.000000	0.010000	0.000000	0.000000	0.000000	0.000000
103	SSM103	SSM102	258.000000	0.010000	0.000000	0.000000	0.000000	0.000000
103.2	SSM103.2	SSM104.2	44.000000	0.015000	0.000000	0.000000	0.000000	0.000000
104	SSM104	SSM103	61.000000	0.010000	0.000000	0.000000	0.000000	0.000000
104.2	SSM104.2	SSM105A.2	231.229691	0.015000	0.000000	0.000000	0.000000	0.000000
105	SSM105	SSM104	93.000000	0.010000	0.000000	0.000000	0.000000	0.000000
105.2	SSM105.2	SSM105A.2	53.000000	0.015000	0.000000	0.000000	0.000000	0.000000
105A	SSM105A	SSM105	64.000000	0.010000	0.000000	0.000000	0.000000	0.000000