[TITLE]
;;Project Title/Notes

[OPTIONS]
;;Option             Value
FLOW_UNITS           GPM
INFILTRATION         HORTON
FLOW_ROUTING         DYNWAVE
LINK_OFFSETS         DEPTH
MIN_SLOPE            0
ALLOW_PONDING        NO
SKIP_STEADY_STATE    NO

START_DATE           12/10/1977
START_TIME           00:00:00
REPORT_START_DATE    12/10/1977
REPORT_START_TIME    00:00:00
END_DATE             12/14/1977
END_TIME             02:00:00
SWEEP_START          02/11
SWEEP_END            10/01
DRY_DAYS             0.000000
REPORT_STEP          00:15:00
WET_STEP             00:05:00
DRY_STEP             00:30:00
ROUTING_STEP         0:00:30 

INERTIAL_DAMPING     NONE
NORMAL_FLOW_LIMITED  SLOPE
FORCE_MAIN_EQUATION  H-W
VARIABLE_STEP        0.75
LENGTHENING_STEP     5
MIN_SURFAREA         12.557
MAX_TRIALS           6
HEAD_TOLERANCE       0.005000
SYS_FLOW_TOL         5
LAT_FLOW_TOL         5
MINIMUM_STEP         0
THREADS              1

[EVAPORATION]
;;Data Source    Parameters
;;-------------- ----------------
CONSTANT         0.000000
DRY_ONLY         NO

[RAINGAGES]
;;Name           Format    Interval SCF      Source    
;;-------------- --------- ------ ------ ----------
SYNTHETIC_36_Smooth VOLUME    0.250000 1.000000 TIMESERIES SYNTHETIC_36_SMOOTH

[JUNCTIONS]
;;Name           Elevation  MaxDepth   InitDepth  SurDepth   Aponded   
;;-------------- ---------- ---------- ---------- ---------- ----------
; Lower Tualatin Pump Station
12122            101.550003 16.549995  0.000000   10000.000000 0.000000  
; Lower Tualatin Pump Station
12123            101.830002 18.070000  0.000000   10000.000000 0.000000  
20000            161.000000 10.000000  0.000000   10000.000000 0.000000  
20002            99.680000  15.320000  0.000000   10000.000000 0.000000  
20004            93.225000  35.775000  0.000000   10000.000000 0.000000  
20006            92.260000  31.740000  0.000000   10000.000000 0.000000  
20008            132.510000 9.490000   0.000000   10000.000000 0.000000  
20010            130.000000 10.000000  0.000000   10000.000000 0.000000  
20012            129.490000 14.510000  0.000000   10000.000000 0.000000  
5000             180.870000 8.730000   0.000000   10000.000000 0.000000  
; Tektronix Diversion
5002             182.430000 9.070000   0.000000   10000.000000 0.000000  
; 5th St Diversion
5003             181.550000 4.850000   0.000000   10000.000000 0.000000  
; SW 5th St Diversion
5004             183.260000 6.740000   0.000000   10000.000000 0.000000  
; Barnes Road Diversion - No Flow Diversion
5005             489.600000 5.400000   0.000000   10000.000000 0.000000  
; Sherwood Rd Diversion
5006             144.890000 7.110000   0.000000   10000.000000 0.000000  
; Fairfield Diversion
5007             201.260000 10.000000  0.000000   10000.000000 0.000000  
5335             493.740000 5.000000   0.000000   10000.000000 0.000000  
5336             493.040000 10.000000  0.000000   10000.000000 0.000000  
5337             491.800000 3.000000   0.000000   10000.000000 0.000000  
5338             490.700000 7.000000   0.000000   10000.000000 0.000000  
5339             489.920000 27.000000  0.000000   10000.000000 0.000000  
5340             489.110000 15.000000  0.000000   10000.000000 0.000000  
5341             484.320000 22.000000  0.000000   10000.000000 0.000000  
5342             482.820000 8.000000   0.000000   10000.000000 0.000000  
5343             475.470000 4.000000   0.000000   10000.000000 0.000000  
5344             433.470000 6.000000   0.000000   10000.000000 0.000000  
5345             422.010000 5.000000   0.000000   10000.000000 0.000000  
5346             420.210000 4.000000   0.000000   10000.000000 0.000000  
5347             397.010000 5.000000   0.000000   10000.000000 0.000000  
5348             388.020000 3.000000   0.000000   10000.000000 0.000000  
5362             487.300000 10.000000  0.000000   10000.000000 0.000000  
5363             472.090000 10.000000  0.000000   10000.000000 0.000000  
5364             466.160000 10.000000  0.000000   10000.000000 0.000000  
5365             457.520000 8.860000   0.000000   10000.000000 0.000000  
5366             457.050000 10.000000  0.000000   10000.000000 0.000000  
5367             454.470000 15.000000  0.000000   10000.000000 0.000000  
5368             454.140000 10.000000  0.000000   10000.000000 0.000000  
5369             453.320000 4.000000   0.000000   10000.000000 0.000000  
5370             452.100000 18.000000  0.000000   10000.000000 0.000000  
5371             451.730000 7.000000   0.000000   10000.000000 0.000000  
5372             446.020000 10.000000  0.000000   10000.000000 0.000000  
5373             444.830000 11.000000  0.000000   10000.000000 0.000000  
5374             612.960000 8.040000   0.000000   10000.000000 0.000000  
5375             598.260000 6.740000   0.000000   10000.000000 0.000000  
5376             589.370000 14.630000  0.000000   10000.000000 0.000000  
5377             559.040000 15.960000  0.000000   10000.000000 0.000000  
5378             549.840000 25.160000  0.000000   10000.000000 0.000000  
5379             528.500000 12.500000  0.000000   10000.000000 0.000000  
5380             527.270000 6.550000   0.000000   10000.000000 0.000000  
5381             526.600000 9.500000   0.000000   10000.000000 0.000000  
5382             524.220000 8.600000   0.000000   10000.000000 0.000000  
5383             522.820000 12.180000  0.000000   10000.000000 0.000000  
5384             504.790000 8.210000   0.000000   10000.000000 0.000000  
5385             499.050000 7.950000   0.000000   10000.000000 0.000000  
5386             496.220000 7.900000   0.000000   10000.000000 0.000000  
5387             494.010000 13.990000  0.000000   10000.000000 0.000000  
5388             492.960000 7.040000   0.000000   10000.000000 0.000000  
5389             492.160000 7.410000   0.000000   10000.000000 0.000000  
5390             451.220000 10.280000  0.000000   10000.000000 0.000000  
5404             456.000000 10.000000  0.000000   10000.000000 0.000000  
5412             450.740000 10.000000  0.000000   10000.000000 0.000000  
5413             450.950000 10.250000  0.000000   10000.000000 0.000000  
5414             452.280000 10.000000  0.000000   10000.000000 0.000000  
5415             386.000000 14.000000  0.000000   10000.000000 0.000000  
5416             384.060000 13.940000  0.000000   10000.000000 0.000000  
5417             380.200000 10.000000  0.000000   10000.000000 0.000000  
5418             381.870000 9.130000   0.000000   10000.000000 0.000000  
5419             368.580000 10.000000  0.000000   10000.000000 0.000000  
5420             358.330000 6.670000   0.000000   10000.000000 0.000000  
5421             356.650000 10.000000  0.000000   10000.000000 0.000000  
5422             349.300000 10.000000  0.000000   10000.000000 0.000000  
5423             346.200000 10.000000  0.000000   10000.000000 0.000000  
5424             334.800000 10.000000  0.000000   10000.000000 0.000000  
5425             330.970000 10.000000  0.000000   10000.000000 0.000000  
5426             319.910000 10.000000  0.000000   10000.000000 0.000000  
5427             295.850000 10.000000  0.000000   10000.000000 0.000000  
5428             280.010000 10.000000  0.000000   10000.000000 0.000000  
5429             270.680000 11.820000  0.000000   10000.000000 0.000000  
5430             269.360000 13.640000  0.000000   10000.000000 0.000000  
5431             268.070000 14.430000  0.000000   10000.000000 0.000000  
5432             265.430000 9.070000   0.000000   10000.000000 0.000000  
5433             264.470000 10.030000  0.000000   10000.000000 0.000000  
5434             263.300000 12.200000  0.000000   10000.000000 0.000000  
5435             262.020000 8.180000   0.000000   10000.000000 0.000000  
5436             340.450000 10.000000  0.000000   10000.000000 0.000000  
5437             261.080000 13.720000  0.000000   10000.000000 0.000000  
5438             260.000000 12.000000  0.000000   10000.000000 0.000000  
5450             296.800000 6.000000   0.000000   10000.000000 0.000000  
5451             284.920000 6.000000   0.000000   10000.000000 0.000000  
5452             280.010000 6.000000   0.000000   10000.000000 0.000000  
5453             268.120000 5.000000   0.000000   10000.000000 0.000000  
5454             266.400000 6.000000   0.000000   10000.000000 0.000000  
5455             259.090000 5.000000   0.000000   10000.000000 0.000000  
5470             222.420000 11.000000  0.000000   10000.000000 0.000000  
5471             218.510000 10.000000  0.000000   10000.000000 0.000000  
5472             217.140000 9.000000   0.000000   10000.000000 0.000000  
5473             215.730000 15.000000  0.000000   10000.000000 0.000000  
5474             213.960000 9.000000   0.000000   10000.000000 0.000000  
5475             246.180000 19.000000  0.000000   10000.000000 0.000000  
5476             245.300000 16.000000  0.000000   10000.000000 0.000000  
5503             268.530000 8.000000   0.000000   10000.000000 0.000000  
5504             268.000000 9.000000   0.000000   10000.000000 0.000000  
5505             264.040000 10.000000  0.000000   10000.000000 0.000000  
5506             261.370000 8.000000   0.000000   10000.000000 0.000000  
5507             256.190000 8.000000   0.000000   10000.000000 0.000000  
5508             252.640000 8.000000   0.000000   10000.000000 0.000000  
5509             250.690000 6.000000   0.000000   10000.000000 0.000000  
5510             249.830000 6.000000   0.000000   10000.000000 0.000000  
5511             247.190000 9.000000   0.000000   10000.000000 0.000000  
5512             267.920000 10.000000  0.000000   10000.000000 0.000000  
5513             260.700000 12.000000  0.000000   10000.000000 0.000000  
5514             259.090000 11.000000  0.000000   10000.000000 0.000000  
5515             256.690000 10.000000  0.000000   10000.000000 0.000000  
5516             249.520000 8.000000   0.000000   10000.000000 0.000000  
5517             243.480000 12.000000  0.000000   10000.000000 0.000000  
5518             235.560000 11.000000  0.000000   10000.000000 0.000000  
5519             232.760000 11.000000  0.000000   10000.000000 0.000000  
5520             230.050000 11.000000  0.000000   10000.000000 0.000000  
5521             239.190000 13.000000  0.000000   10000.000000 0.000000  
5522             237.460000 5.000000   0.000000   10000.000000 0.000000  
5523             236.200000 14.000000  0.000000   10000.000000 0.000000  
5524             233.410000 16.790000  0.000000   10000.000000 0.000000  
5525             225.820000 9.000000   0.000000   10000.000000 0.000000  
5526             223.920000 8.000000   0.000000   10000.000000 0.000000  
5527             219.770000 7.000000   0.000000   10000.000000 0.000000  
5528             219.040000 8.000000   0.000000   10000.000000 0.000000  
5529             218.390000 7.000000   0.000000   10000.000000 0.000000  
5530             215.590000 9.000000   0.000000   10000.000000 0.000000  
5531             214.890000 8.000000   0.000000   10000.000000 0.000000  
5532             212.000000 14.000000  0.000000   10000.000000 0.000000  
5533             227.750000 9.000000   0.000000   10000.000000 0.000000  
5534             224.970000 8.000000   0.000000   10000.000000 0.000000  
5535             222.330000 9.000000   0.000000   10000.000000 0.000000  
5536             216.810000 10.000000  0.000000   10000.000000 0.000000  
5537             216.330000 11.000000  0.000000   10000.000000 0.000000  
5538             216.250000 9.000000   0.000000   10000.000000 0.000000  
5539             209.580000 5.000000   0.000000   10000.000000 0.000000  
5540             210.890000 8.000000   0.000000   10000.000000 0.000000  
5541             205.130000 7.000000   0.000000   10000.000000 0.000000  
5542             203.700000 14.440000  0.000000   10000.000000 0.000000  
5543             203.100000 14.580000  0.000000   10000.000000 0.000000  
5576             217.840000 10.000000  0.000000   10000.000000 0.000000  
5577             216.810000 10.000000  0.000000   10000.000000 0.000000  
5578             221.570000 10.000000  0.000000   10000.000000 0.000000  
5579             217.760000 10.000000  0.000000   10000.000000 0.000000  
5580             217.130000 4.640000   0.000000   10000.000000 0.000000  
5615             190.050000 12.950000  0.000000   10000.000000 0.000000  
5616             189.200000 16.800000  0.000000   10000.000000 0.000000  
5617             188.590000 18.410000  0.000000   10000.000000 0.000000  
5618             187.300000 11.700000  0.000000   10000.000000 0.000000  
5619             186.310000 23.690000  0.000000   10000.000000 0.000000  
5620             185.010000 25.990000  0.000000   10000.000000 0.000000  
5621             183.880000 25.120000  0.000000   10000.000000 0.000000  
5622             183.500000 10.000000  0.000000   10000.000000 0.000000  
5672             240.280000 8.000000   0.000000   10000.000000 0.000000  
5681             233.650000 6.000000   0.000000   10000.000000 0.000000  
5682             228.500000 8.000000   0.000000   10000.000000 0.000000  
5683             247.640000 10.000000  0.000000   10000.000000 0.000000  
5684             228.500000 10.000000  0.000000   10000.000000 0.000000  
5687             225.040000 13.450000  0.000000   10000.000000 0.000000  
5688             225.000000 12.270000  0.000000   10000.000000 0.000000  
5693             222.480000 12.450000  0.000000   10000.000000 0.000000  
5694             221.300000 11.870000  0.000000   10000.000000 0.000000  
5695             220.420000 10.720000  0.000000   10000.000000 0.000000  
5696             220.240000 13.130000  0.000000   10000.000000 0.000000  
5697             219.260000 16.260000  0.000000   10000.000000 0.000000  
5701             382.400000 4.020000   0.000000   10000.000000 0.000000  
5702             377.210000 8.300000   0.000000   10000.000000 0.000000  
5703             372.500000 11.330000  0.000000   10000.000000 0.000000  
5704             349.620000 8.000000   0.000000   10000.000000 0.000000  
5705             322.800000 8.000000   0.000000   10000.000000 0.000000  
5706             308.550000 4.450000   0.000000   10000.000000 0.000000  
5707             304.330000 5.030000   0.000000   10000.000000 0.000000  
5708             286.010000 3.000000   0.000000   10000.000000 0.000000  
5709             275.980000 4.000000   0.000000   10000.000000 0.000000  
5710             265.830000 4.000000   0.000000   10000.000000 0.000000  
5711             264.050000 7.000000   0.000000   10000.000000 0.000000  
5712             257.640000 6.000000   0.000000   10000.000000 0.000000  
5713             248.110000 9.000000   0.000000   10000.000000 0.000000  
5714             247.540000 5.460000   0.000000   10000.000000 0.000000  
5715             245.750000 8.000000   0.000000   10000.000000 0.000000  
5716             242.610000 6.000000   0.000000   10000.000000 0.000000  
5717             237.930000 3.000000   0.000000   10000.000000 0.000000  
5718             234.190000 7.550000   0.000000   10000.000000 0.000000  
5719             234.190000 6.000000   0.000000   10000.000000 0.000000  
5720             439.780000 12.000000  0.000000   10000.000000 0.000000  
5721             436.390000 6.000000   0.000000   10000.000000 0.000000  
5722             436.000000 8.000000   0.000000   10000.000000 0.000000  
5723             432.250000 10.000000  0.000000   10000.000000 0.000000  
5724             412.360000 10.000000  0.000000   10000.000000 0.000000  
5725             378.430000 10.000000  0.000000   10000.000000 0.000000  
5726             369.090000 10.000000  0.000000   10000.000000 0.000000  
5727             368.160000 10.000000  0.000000   10000.000000 0.000000  
5728             352.620000 10.000000  0.000000   10000.000000 0.000000  
5729             334.610000 10.000000  0.000000   10000.000000 0.000000  
5730             324.140000 10.000000  0.000000   10000.000000 0.000000  
5731             323.420000 10.000000  0.000000   10000.000000 0.000000  
5732             322.540000 10.000000  0.000000   10000.000000 0.000000  
5733             321.190000 10.000000  0.000000   10000.000000 0.000000  
5734             317.440000 10.000000  0.000000   10000.000000 0.000000  
5735             291.810000 10.000000  0.000000   10000.000000 0.000000  
5736             284.920000 10.000000  0.000000   10000.000000 0.000000  
5753             443.550000 10.000000  0.000000   10000.000000 0.000000  
5754             171.240000 3.760000   0.000000   10000.000000 0.000000  
5755             193.210000 12.000000  0.000000   10000.000000 0.000000  
5756             190.550000 12.000000  0.000000   10000.000000 0.000000  
5757             187.980000 8.000000   0.000000   10000.000000 0.000000  
5758             187.010000 8.000000   0.000000   10000.000000 0.000000  
5759             190.720000 9.280000   0.000000   10000.000000 0.000000  
5760             190.000000 8.000000   0.000000   10000.000000 0.000000  
5761             174.260000 14.740000  0.000000   10000.000000 0.000000  
5762             173.250000 15.750000  0.000000   10000.000000 0.000000  
5763             194.200000 10.000000  0.000000   10000.000000 0.000000  
5764             191.000000 10.000000  0.000000   10000.000000 0.000000  
5765             179.210000 10.880000  0.000000   10000.000000 0.000000  
5766             178.480000 7.020000   0.000000   10000.000000 0.000000  
5767             169.730000 6.000000   0.000000   10000.000000 0.000000  
5768             168.920000 4.000000   0.000000   10000.000000 0.000000  
5769             166.130000 10.870000  0.000000   10000.000000 0.000000  
5770             155.160000 17.840000  0.000000   10000.000000 0.000000  
5771             162.950000 10.000000  0.000000   10000.000000 0.000000  
5773             188.470000 9.000000   0.000000   10000.000000 0.000000  
5774             185.800000 15.000000  0.000000   10000.000000 0.000000  
5775             185.100000 20.000000  0.000000   10000.000000 0.000000  
5776             184.200000 19.000000  0.000000   10000.000000 0.000000  
5777             183.010000 11.000000  0.000000   10000.000000 0.000000  
5778             186.260000 8.000000   0.000000   10000.000000 0.000000  
5779             185.430000 7.000000   0.000000   10000.000000 0.000000  
5780             181.970000 8.030000   0.000000   10000.000000 0.000000  
5781             189.530000 15.470000  0.000000   10000.000000 0.000000  
5782             189.110000 8.890000   0.000000   10000.000000 0.000000  
5783             188.630000 6.370000   0.000000   10000.000000 0.000000  
5784             176.140000 15.390000  0.000000   10000.000000 0.000000  
5785             175.910000 9.040000   0.000000   10000.000000 0.000000  
5786             175.610000 12.000000  0.000000   10000.000000 0.000000  
5787             175.040000 11.000000  0.000000   10000.000000 0.000000  
5788             172.110000 7.000000   0.000000   10000.000000 0.000000  
5789             171.470000 5.000000   0.000000   10000.000000 0.000000  
5790             170.600000 9.000000   0.000000   10000.000000 0.000000  
5791             169.360000 6.000000   0.000000   10000.000000 0.000000  
5793             178.070000 8.480000   0.000000   10000.000000 0.000000  
5794             175.400000 10.600000  0.000000   10000.000000 0.000000  
5795             177.000000 12.310000  0.000000   10000.000000 0.000000  
5796             174.390000 11.610000  0.000000   10000.000000 0.000000  
5797             167.990000 11.010000  0.000000   10000.000000 0.000000  
5798             166.040000 6.960000   0.000000   10000.000000 0.000000  
5799             166.020000 6.980000   0.000000   10000.000000 0.000000  
5800             167.340000 4.660000   0.000000   10000.000000 0.000000  
5801             165.870000 12.130000  0.000000   10000.000000 0.000000  
5802             165.620000 16.380000  0.000000   10000.000000 0.000000  
5803             165.420000 11.580000  0.000000   10000.000000 0.000000  
5804             165.380000 11.960000  0.000000   10000.000000 0.000000  
5805             165.370000 12.000000  0.000000   10000.000000 0.000000  
5806             164.820000 15.000000  0.000000   10000.000000 0.000000  
5807             166.140000 11.000000  0.000000   10000.000000 0.000000  
5808             166.370000 11.000000  0.000000   10000.000000 0.000000  
5809             166.750000 9.000000   0.000000   10000.000000 0.000000  
5810             167.230000 7.000000   0.000000   10000.000000 0.000000  
5811             166.410000 10.000000  0.000000   10000.000000 0.000000  
5812             167.410000 6.000000   0.000000   10000.000000 0.000000  
5813             167.620000 3.000000   0.000000   10000.000000 0.000000  
5814             168.060000 6.000000   0.000000   10000.000000 0.000000  
5815             167.300000 13.000000  0.000000   10000.000000 0.000000  
5816             171.760000 15.240000  0.000000   10000.000000 0.000000  
5817             170.890000 27.110000  0.000000   10000.000000 0.000000  
5818             170.030000 17.970000  0.000000   10000.000000 0.000000  
5819             158.870000 19.130000  0.000000   10000.000000 0.000000  
5820             158.840000 21.160000  0.000000   10000.000000 0.000000  
5821             158.360000 23.640000  0.000000   10000.000000 0.000000  
5822             157.860000 20.140000  0.000000   10000.000000 0.000000  
5823             178.780000 13.220000  0.000000   10000.000000 0.000000  
5824             177.640000 14.000000  0.000000   10000.000000 0.000000  
5825             176.660000 11.000000  0.000000   10000.000000 0.000000  
5826             176.180000 12.000000  0.000000   10000.000000 0.000000  
5827             175.340000 15.000000  0.000000   10000.000000 0.000000  
5828             179.620000 15.380000  0.000000   10000.000000 0.000000  
5829             159.100000 21.900000  0.000000   10000.000000 0.000000  
5830             159.190000 22.810000  0.000000   10000.000000 0.000000  
5831             159.230000 23.770000  0.000000   10000.000000 0.000000  
5832             160.070000 18.930000  0.000000   10000.000000 0.000000  
5833             160.300000 14.300000  0.000000   10000.000000 0.000000  
5834             168.900000 14.100000  0.000000   10000.000000 0.000000  
5835             169.360000 10.000000  0.000000   10000.000000 0.000000  
5836             160.500000 17.500000  0.000000   10000.000000 0.000000  
5837             160.700000 15.300000  0.000000   10000.000000 0.000000  
5838             160.610000 17.390000  0.000000   10000.000000 0.000000  
5839             160.840000 11.000000  0.000000   10000.000000 0.000000  
5840             160.980000 13.000000  0.000000   10000.000000 0.000000  
5841             161.670000 11.000000  0.000000   10000.000000 0.000000  
5842             161.760000 12.000000  0.000000   10000.000000 0.000000  
5843             161.950000 8.000000   0.000000   10000.000000 0.000000  
5844             162.140000 13.000000  0.000000   10000.000000 0.000000  
5845             162.390000 10.610000  0.000000   10000.000000 0.000000  
5846             162.160000 15.340000  0.000000   10000.000000 0.000000  
5847             164.040000 12.000000  0.000000   10000.000000 0.000000  
5848             164.310000 17.000000  0.000000   10000.000000 0.000000  
5849             168.840000 9.160000   0.000000   10000.000000 0.000000  
5850             168.510000 10.490000  0.000000   10000.000000 0.000000  
5851             168.000000 12.000000  0.000000   10000.000000 0.000000  
5852             167.010000 6.990000   0.000000   10000.000000 0.000000  
5853             166.960000 9.040000   0.000000   10000.000000 0.000000  
5854             166.740000 10.260000  0.000000   10000.000000 0.000000  
5855             166.080000 10.060000  0.000000   10000.000000 0.000000  
5856             163.780000 12.220000  0.000000   10000.000000 0.000000  
5857             163.610000 11.390000  0.000000   10000.000000 0.000000  
5858             163.200000 9.800000   0.000000   10000.000000 0.000000  
5859             169.190000 7.810000   0.000000   10000.000000 0.000000  
5860             173.380000 10.120000  0.000000   10000.000000 0.000000  
5861             187.030000 6.970000   0.000000   10000.000000 0.000000  
5862             182.330000 7.670000   0.000000   10000.000000 0.000000  
5863             175.830000 7.000000   0.000000   10000.000000 0.000000  
5864             166.980000 7.000000   0.000000   10000.000000 0.000000  
5865             165.860000 7.000000   0.000000   10000.000000 0.000000  
5866             164.680000 8.980000   0.000000   10000.000000 0.000000  
5867             174.280000 8.720000   0.000000   10000.000000 0.000000  
5868             174.940000 8.560000   0.000000   10000.000000 0.000000  
5869             175.520000 8.980000   0.000000   10000.000000 0.000000  
5870             175.730000 9.770000   0.000000   10000.000000 0.000000  
5871             176.400000 6.600000   0.000000   10000.000000 0.000000  
5872             177.200000 5.800000   0.000000   10000.000000 0.000000  
5873             163.980000 13.220000  0.000000   10000.000000 0.000000  
5874             164.060000 11.040000  0.000000   10000.000000 0.000000  
5875             165.190000 10.410000  0.000000   10000.000000 0.000000  
5876             170.530000 12.470000  0.000000   10000.000000 0.000000  
5877             164.220000 11.880000  0.000000   10000.000000 0.000000  
5878             175.830000 14.170000  0.000000   10000.000000 0.000000  
5879             179.060000 10.140000  0.000000   10000.000000 0.000000  
5880             178.780000 9.620000   0.000000   10000.000000 0.000000  
5881             180.310000 10.000000  0.000000   10000.000000 0.000000  
5882             181.150000 10.000000  0.000000   10000.000000 0.000000  
5883             181.440000 10.000000  0.000000   10000.000000 0.000000  
5884             181.810000 10.000000  0.000000   10000.000000 0.000000  
5885             181.610000 10.290000  0.000000   10000.000000 0.000000  
5886             182.350000 10.000000  0.000000   10000.000000 0.000000  
5887             182.730000 10.330000  0.000000   10000.000000 0.000000  
5895             196.810000 10.000000  0.000000   10000.000000 0.000000  
5896             199.680000 10.000000  0.000000   10000.000000 0.000000  
5897             200.970000 10.000000  0.000000   10000.000000 0.000000  
5898             203.000000 10.000000  0.000000   10000.000000 0.000000  
5903             188.580000 12.780000  0.000000   10000.000000 0.000000  
5904             189.170000 7.010000   0.000000   10000.000000 0.000000  
5905             189.800000 12.000000  0.000000   10000.000000 0.000000  
5906             190.190000 16.810000  0.000000   10000.000000 0.000000  
5907             190.720000 14.350000  0.000000   10000.000000 0.000000  
5908             182.070000 8.150000   0.000000   10000.000000 0.000000  
5909             183.540000 6.880000   0.000000   10000.000000 0.000000  
5910             191.130000 10.670000  0.000000   10000.000000 0.000000  
5911             192.530000 5.970000   0.000000   10000.000000 0.000000  
5912             193.800000 2.700000   0.000000   10000.000000 0.000000  
5913             203.500000 10.000000  0.000000   10000.000000 0.000000  
5914             203.750000 10.000000  0.000000   10000.000000 0.000000  
5915             204.000000 10.000000  0.000000   10000.000000 0.000000  
5916             177.750000 7.650000   0.000000   10000.000000 0.000000  
5917             176.280000 7.170000   0.000000   10000.000000 0.000000  
5918             180.300000 4.620000   0.000000   10000.000000 0.000000  
5919             162.250000 21.550000  0.000000   10000.000000 0.000000  
5920             162.720000 19.730000  0.000000   10000.000000 0.000000  
5921             163.380000 18.020000  0.000000   10000.000000 0.000000  
5922             163.860000 14.540000  0.000000   10000.000000 0.000000  
5923             164.340000 13.760000  0.000000   10000.000000 0.000000  
5924             171.840000 7.960000   0.000000   10000.000000 0.000000  
5925             176.000000 9.400000   0.000000   10000.000000 0.000000  
5926             182.870000 10.930000  0.000000   10000.000000 0.000000  
5927             184.430000 15.570000  0.000000   10000.000000 0.000000  
5928             164.820000 16.080000  0.000000   10000.000000 0.000000  
5929             165.350000 14.650000  0.000000   10000.000000 0.000000  
5930             165.940000 15.060000  0.000000   10000.000000 0.000000  
5931             166.530000 14.470000  0.000000   10000.000000 0.000000  
5932             167.150000 13.850000  0.000000   10000.000000 0.000000  
5933             167.210000 13.790000  0.000000   10000.000000 0.000000  
5934             167.390000 13.610000  0.000000   10000.000000 0.000000  
5935             167.640000 13.360000  0.000000   10000.000000 0.000000  
5936             168.100000 12.900000  0.000000   10000.000000 0.000000  
5937             168.920000 10.000000  0.000000   10000.000000 0.000000  
5938             169.200000 5.900000   0.000000   10000.000000 0.000000  
5939             170.900000 6.100000   0.000000   10000.000000 0.000000  
5940             171.400000 10.900000  0.000000   10000.000000 0.000000  
5941             172.090000 11.410000  0.000000   10000.000000 0.000000  
5942             184.710000 10.000000  0.000000   10000.000000 0.000000  
5943             186.210000 10.000000  0.000000   10000.000000 0.000000  
5944             187.000000 10.000000  0.000000   10000.000000 0.000000  
5945             188.680000 10.000000  0.000000   10000.000000 0.000000  
5946             169.620000 11.880000  0.000000   10000.000000 0.000000  