[TITLE]
;;Project Title/Notes

[OPTIONS]
;;Option             Value
FLOW_UNITS           GPM
INFILTRATION         HORTON
FLOW_ROUTING         DYNWAVE
LINK_OFFSETS         DEPTH
MIN_SLOPE            0
ALLOW_PONDING        YES
SKIP_STEADY_STATE    NO

START_DATE           11/06/2009
START_TIME           00:00:00
REPORT_START_DATE    11/06/2009
REPORT_START_TIME    00:00:00
END_DATE             11/07/2009
END_TIME             00:00:00
SWEEP_START          01/01
SWEEP_END            12/31
DRY_DAYS             0
REPORT_STEP          00:01:00
WET_STEP             00:15:00
DRY_STEP             01:00:00
ROUTING_STEP         0:00:10 

INERTIAL_DAMPING     PARTIAL
NORMAL_FLOW_LIMITED  BOTH
FORCE_MAIN_EQUATION  H-W
VARIABLE_STEP        0.75
LENGTHENING_STEP     10
MIN_SURFAREA         12.557
MAX_TRIALS           8
HEAD_TOLERANCE       0.001
SYS_FLOW_TOL         5
LAT_FLOW_TOL         5
MINIMUM_STEP         0
THREADS              1

[FILES]
;;Interfacing Files

[EVAPORATION]
;;Data Source    Parameters
;;-------------- ----------------
CONSTANT         0.0
DRY_ONLY         NO

[JUNCTIONS]
;;Name           Elevation  MaxDepth   InitDepth  SurDepth   Aponded   
;;-------------- ---------- ---------- ---------- ---------- ----------
39149            329.57     9.60       0          0          0         
39150            328.64     14.00      0          0          0         
39151            327        14.00      0          0          0         
39152            324.48     13.00      0          0          0         
39153            323.35     13.00      0          0          0         
39154            322.23     12.00      0          0          0         
39155            321.20     11.00      0          0          0         
39156            318.2      10.00      0          0          0         
39163            336.19     17.59      0          0          0         
39164            335.18     12.95      0          0          0         
39166            334.48     12.67      0          0          0         
39167            333.73     13.66      0          0          0         
39168            333.36     14.23      0          0          0         
39169            332.59     16.00      0          0          0         
39170            371.49     6.00       0          0          0         
39171            355.49     7.00       0          0          0         
39172            335.66     13.00      0          0          0         
39173            330.49     14.00      0          0          0         
39179            400.59     11.00      0          0          0         
39180            394.89     12.00      0          0          0         
39181            393.78     13.00      0          0          0         
39188            369.49     16.17      0          0          0         
39189            363.59     9.00       0          0          0         
39190            345.59     8.00       0          0          0         
39191            340.49     11.00      0          0          0         
39192            516.35     10.39      0          0          0         
39193            490.49     12.10      0          0          0         
39194            441.79     18.80      0          0          0         
39195            429.49     19.10      0          0          0         
39203            399.09     6.50       0          0          0         
39204            392.09     7.50       0          0          0         
39206            372.49     9.10       0          0          0         
39207            362.99     10.60      0          0          0         
39208            357.59     8.00       0          0          0         
39213            344.03     12.15      0          0          0         
39214            343.21     16.84      0          0          0         
39218            342.62     21.23      0          0          0         
39224            340.88     17.24      0          0          0         
39225            339.92     19.05      0          0          0         
39247            339.32     19.51      0          0          0         
39248            337.92     23.53      0          0          0         
39249            336.76     21.51      0          0          0         
39250            519.49     11.00      0          0          0         
39251            501.54     16.00      0          0          0         
39252            489.09     13.00      0          0          0         
39253            481.49     11.00      0          0          0         
39254            471.09     8.00       0          0          0         
39255            462.59     8.00       0          0          0         
39256            439.17     9.00       0          0          0         
39257            437.49     8.00       0          0          0         
39258            421.09     5.00       0          0          0         
39259            397.49     5.00       0          0          0         
39299            441.65     11.00      0          0          0         
39300            433.49     9.00       0          0          0         
39303            431.70     10.00      0          0          0         
39304            422.32     7.50       0          0          0         
39305            419.59     11.00      0          0          0         
39306            416.59     8.00       0          0          0         
39331            445.6      7.00       0          0          0         
39332            444.5      11.73      0          0          0         
39333            442.9      11.00      0          0          0         
39405            543.49     13.10      0          0          0         
39406            517.09     10         0          0          0         
39518            634.09     9.00       0          0          0         
39519            588.59     12.00      0          0          0         
39520            568.99     13.00      0          0          0         
39521            559.09     10.00      0          0          0         
39522            535.59     12.00      0          0          0         
39524            673.4      12.50      0          0          0         
39525            666.70     10.00      0          0          0         
39561            778.09     8.60       0          0          0         
39562            770.85     7.74       0          0          0         
39563            765.49     8.10       0          0          0         
39564            756.49     9.10       0          0          0         
39565            736.59     14.00      0          0          0         
39567            733.09     13.50      0          0          0         
39568            731.49     17.10      0          0          0         
39570            724.49     13.10      0          0          0         
39571            716.49     11.10      0          0          0         
39572            699.95     13.64      0          0          0         
39573            699.03     11.56      0          0          0         
39574            692.76     11.78      0          0          0         
39575            686.7      13.00      0          0          0         
39795            802.7      11.84      0          0          0         
39796            785.43     8.11       0          0          0         
39797            781.6      4.94       0          0          0         
39798            781.04     11.16      0          0          0         
39195265         344.63     9.6        0          0          0         
39195288         346.60     5.4        0          0          0         
39195270         347.09     6          0          0          0         
39195272         348.54     5.9        0          0          0         
39395            603.12     14.1       0          0          0         
39396            592.25     13.7       0          0          0         
39397            583.96     12.7       0          0          0         
39398            562.45     11.25      0          0          0         
39399            558        9.65       0          0          0         
39404            557.25     9.4        0          0          0         
39390            544.69     11.3       0          0          0         
39356            545.34     8.6        0          0          0         
39355            548.75     11.25      0          0          0         
39354            581        11.2       0          0          0         
39353            669.1      12.5       0          0          0         
39486            613.97     11.6       0          0          0         
39485            618.53     10.2       0          0          0         
39484            625.28     9.1        0          0          0         
39480            634.84     10.2       0          0          0         
39479            666        18.91      0          0          0         
41110            69.99      12.00      0          0          0         
41111            68.90      13.50      0          0          0         
41112            67.98      14.00      0          0          0         
41113            67.53      18.60      0          0          0         
41114            62.85      15.60      0          0          0         
41115            61.09      10.50      0          0          0         
41116            58.49      19.40      0          0          0         
192864           57.44      12.00      0          0          0         
196631           68.49      11.20      0          0          0         
41120            73.29      12.50      0          0          0         
41121            76.21      15.00      0          0          0         
41122            77.01      13.10      0          0          0         
41127            79.13      15.20      0          0          0         
41128            83.76      13.40      0          0          0         
41129            88.10      15.30      0          0          0         
41158            83.52      13.20      0          0          0         
41179            69.78      12.01      0          0          0         
196357           84.09      17.00      0          0          0         
41181            94.19      13.40      0          0          0         
41182            99.56      9.03       0          0          0         
41188            202.59     11.10      0          0          0         
41189            234.52     6.90       0          0          0         
41190            244.09     5.00       0          0          0         
41191            247.84     12.05      0          0          0         
41192            265.4      17.71      0          0          0         
41193            269.4      10.4       0          0          0         
41197            104.59     14.50      0          0          0         
41198            122.38     41.00      0          0          0         
41199            138.99     7.00       0          0          0         
41200            143.21     16.60      0          0          0         
41201            154.31     10.50      0          0          0         
41202            160.20     11.10      0          0          0         
41203            171.44     9.00       0          0          0         
41204            179.49     8.00       0          0          0         
41205            188.49     10.20      0          0          0         
41206            200.49     10.90      0          0          0         
41207            209.49     7.60       0          0          0         
41208            214.59     8.40       0          0          0         
41209            233.49     11.00      0          0          0         
41210            265.31     15.00      0          0          0         
4182808          89.20      18         0          0          0         
41362            91.89      25.93      0          0          0         
41363            93.19      6.8        0          0          0         
41366            94.96      6.50       0          0          0         
41367            97.54      9.50       0          0          0         
41368            98.00      14.00      0          0          0         
41369            98.89      12.50      0          0          0         
41370            99.09      13.70      0          0          0         
41371            99.61      13.30      0          0          0         
41372            99.83      13.20      0          0          0         
41373            100.26     10.70      0          0          0         
41375            101.81     12.00      0          0          0         
41376            104.72     11.40      0          0          0         
41377            108.59     10.70      0          0          0         
41378            113.59     18.20      0          0          0         
41379            119.59     14.50      0          0          0         
41380            144.39     11.20      0          0          0         
41381            175.70     12.87      0          0          0         
41382            203.54     8.65       0          0          0         
41458            267.76     12.50      0          0          0         
41459            271.65     12.00      0          0          0         
41460            275.49     7.60       0          0          0         
41461            279.49     10.50      0          0          0         
41462            285.39     14.70      0          0          0         
41465            289.03     12.00      0          0          0         
41466            293.01     11.50      0          0          0         
41467            298.99     10.50      0          0          0         
41468            307.56     15.00      0          0          0         
41487            312.52     11.20      0          0          0         
41488            314.59     8.80       0          0          0         
41611            278.07     11.42      0          0          0         
4182801          91.64      32.62      0          0          0         
4182806          89.40      23.59      0          0          0         
4182803          90.80      29.41      0          0          0         
41469            309.59     14         0          0          0         
41470            316.59     14.6       0          0          0         
41471            317.59     10.8       0          0          0         
41472            318.89     11.5       0          0          0         
41473            320.90     10.2       0          0          0         
41474            323.29     8          0          0          0         
41479            326.39     8.1        0          0          0         
41482            326.69     7.2        0          0          0         
41483            327.72     15         0          0          0         
41568            329.03     26         0          0          0         
41546            329.38     6.3        0          0          0         
41547            330.32     9          0          0          0         
41548            331.35     6.6        0          0          0         
41549            332.33     5.77       0          0          0         
41550            333.43     8          0          0          0         
41551            334.56     9.5        0          0          0         
41552            335.34     11.9       0          0          0         
41555            336.93     11.6       0          0          0         
41556            338.04     12         0          0          0         
41557            339.38     15.11      0          0          0         
41558            340.42     9          0          0          0         
40667            381.54     11         0          0          0         
40116            400.54     9          0          0          0         
40117            431.54     7.4        0          0          0         
40118            450.59     7.8        0          0          0         
40119            472.04     6.05       0          0          0         
40120            496.54     10.1       0          0          0         
40444            517.54     8.7        0          0          0         
40443            547.54     7.3        0          0          0         
40442            570.54     9.2        0          0          0         
40441            605.54     10.7       0          0          0         
40440            643.64     8.1        0          0          0         
40439            670.54     9.8        0          0          0         
40438            694.54     10         0          0          0         
40437            723.54     11         0          0          0         
40108            378.35     11.6       0          0          0         
40107            376.55     8.2        0          0          0         
40666            375.71     4.9        0          0          0         
40105            374.53     9          0          0          0         
40104            373.99     22         0          0          0         
40103            373.61     10.25      0          0          0         
40102            356.59     19.16      0          0          0         
41506            314.95     11.02      0          0          0         
41507            317.99     8.41       0          0          0         
41526            331.87     7.97       0          0          0         
41530            351.74     9.4        0          0          0         
41489            317.75     9.26       0          0          0         
41504            343.59     8.7        0          0          0         
41503            347.49     7.9        0          0          0         
41502            355.79     7.7        0          0          0         
41501            367.34     10.6       0          0          0         
40666a           375.71     4.9        0          0          0         
39195265a        344.59     9.7        0          0          0         
;cleanout: added for the purpose of modeling the change in slopes
39195265b        343.1      0.67       0          20         0         
196392           280.87     0          0          0          0         
196844           305.99     0          0          0          0         
204523           288.7      0          0          0          0         
196443           293        0          0          0          0         
196498           300.49     0          0          0          0         
192853           304.25     0          0          0          0         
196835           312.21     0          0          0          0         
196827           313.02     0          0          0          0         
196838           313.91     0          0          0          0         
196839           315.61     0          0          0          0         
196840           316.43     0          0          0          0         
307              130.18     12.57      0          0          0         
306              142.23     7.83       0          0          0         
305              148.3      6.24       0          0          0         
304              156.9      9.96       0          0          0         
303              177.1      8.19       0          0          0         
302              197.7      7          0          0          0         
301              201.3      8.95       0          0          0         
196629           57.35      12         0          0          0         
KC_R06-25        57.1       10         0          0          0         
KC_R06-24        56.14      16         .5         0          0         
KC_R06-23        55.93      17         .5         0          0         
KC_R06-22A       55.55      10         .5         0          0         
KC_R06-22        54.9       15         .5         0          0         
KC_R06-21A       53.4       8          .5         0          0         
KC_R06-21        51.9       5          .5         0          0         
KC_R06-20A       51.25      5          .5         0          0         
KC_R06-20        50.6       6          .5         0          0         
KC_R06-19A       46.05      8          .5         0          0         

[OUTFALLS]
;;Name           Elevation  Type       Stage Data       Gated    Route To        
;;-------------- ---------- ---------- ---------------- -------- ----------------
OUTFALL          311.69     FREE                        NO                       
KC_R06-19        41.5       NORMAL                      NO                       
40101a           355.49     FREE                        NO                       

[CONDUITS]
;;Name           From Node        To Node          Length     Roughness  InOffset   OutOffset  InitFlow   MaxFlow   
;;-------------- ---------------- ---------------- ---------- ---------- ---------- ---------- ---------- ----------
39156            39156            OUTFALL          455        0.013      0          1.04       0          0         
39155            39155            39156            194        0.013      0          0.79       0          0         
39154            39154            39155            116        0.013      0          0          0          0         
39153            39153            39154            116        0.013      0          0.1        0          0         
39152            39152            39153            116        0.013      0          0.1        0          0         
39151            39151            39152            505        0.013      0          0.1        0          0         
39150            39150            39151            95         0.013      0          0          0          0         
39149            39149            39150            139        0.013      0          0.05       0          0         
39173            39173            39149            140        0.013      0          0          0          0         
39169            39169            39173            300        0.013      0          0.1        0          0         
39168            39168            39169            147        0.013      0          0.35       0          0         
39167            39167            39168            90         0.013      0          0.1        0          0         
39166            39166            39167            178        0.013      0          0.1        0          0         
39164            39164            39166            255        0.013      0          0.12       0          0         
39163            39163            39164            201        0.013      0          0.1        0          0         
39249            39249            39163            123        0.013      0          0.04       0          0         
39248            39248            39249            174        0.013      0          0.04       0          0         
39247            39247            39248            405        0.013      0          0.04       0          0         
39225            39225            39247            140        0.013      0          0.21       0          0         
39224            39224            39225            234        0.013      0          0          0          0         
39218            39218            39224            396        0.013      0          0.22       0          0         
39214            39214            39218            126        0.013      0          0.2        0          0         
39213            39213            39214            169        0.013      0          0.09       0          0         
;MA_Number is 212 in ArcGIS
39195265         39195265         39213            89         0.013      0          0.13       0          0         
;MA_Number 211 in ArcGIS
39195288         39195288         39195265         153        0.013      0          0.1        0          0         
;MA_Number 210 in ArcGIS
39195270         39195270         39195288         77         0.013      0          0.1        0          0         
;MA_Number is 209 in ArcGIS
39195272         39195272         39195270         145        0.013      0          0.1        0          0         
39208            39208            39213            300        0.013      0          0.03       0          0         
39207            39207            39208            220        0.013      0          0.1        0          0         
39206            39206            39207            123        0.013      0          0.1        0          0         
39204            39204            39206            184        0.013      0          0.1        0          0         
39203            39203            39204            179        0.013      0          0.1        0          0         
39195            39195            39203            338        0.013      0          0.1        0          0         
39194            39194            39195            130        0.013      0          0.1        0          0         
39193            39193            39194            218        0.013      0          0.1        0          0         
39192            39192            39193            279        0.013      0          0.1        0          0         
39406            39406            39192            127        0.013      0          0.1        0          0         
39405            39405            39406            278        0.013      0          0.17       0          0         
39390            39390            39405            150        0.013      0          0.05       0          0         
39356            39356            39390            85         0.013      0          0          0          0         
39355            39355            39356            77         0.013      0          .1         0          0         
39354            39354            39355            139        0.013      0          .1         0          0         
39353            39353            39354            374        0.013      0          .1         0          0         
39404            39404            39405            174        0.013      0          0.38       0          0         
39399            39399            39404            9          0.013      0          .05        0          0         
39398            39398            39399            60         0.013      0          .05        0          0         
39397            39397            39398            400        0.013      0          .05        0          0         
39396            39396            39397            350        0.013      0          .05        0          0         
39395            39395            39396            265        0.013      0          0          0          0         
39486            39486            39395            275        0.013      0          0          0          0         
39485            39485            39486            47         0.013      0          0.05       0          0         
39172            39172            39169            65         0.013      0          0.1        0          0         
39171            39171            39172            292        0.013      0          0.42       0          0         
39170            39170            39171            246        0.013      0          0.1        0          0         
39259            39259            39170            394        0.013      0          0.1        0          0         
39258            39258            39259            403        0.013      0          0.1        0          0         
39257            39257            39258            407        0.013      0          0.1        0          0         
39256            39256            39257            45         0.013      0          0.1        0          0         
39255            39255            39256            412        0.013      0          0.1        0          0         
39254            39254            39255            145        0.013      0          0.1        0          0         
39253            39253            39254            285        0.013      0          0.1        0          0         
39252            39252            39253            159        0.013      0          0.27       0          0         
39251            39251            39252            241        0.013      0          0.1        0          0         
39250            39250            39251            175        0.013      0          0.1        0          0         
39522            39522            39250            147        0.013      0          0.1        0          0         
39521            39521            39522            246        0.013      0          0.1        0          0         
39520            39520            39521            125        0.013      0          0          0          0         
39519            39519            39520            329        0.013      0          0          0          0         
39518            39518            39519            287        0.013      0          0.27       0          0         
39525            39525            39518            318        0.013      0          0.27       0          0         
39524            39524            39525            97         0.013      0          0.49       0          0         
39575            39575            39524            150        0.013      0          0.1        0          0         
39574            39574            39575            82         0.013      0          0.1        0          0         
39573            39573            39574            74         0.013      0          0.1        0          0         
39572            39572            39573            169        0.013      0          0.1        0          0         
39571            39571            39572            174        0.013      0          0.1        0          0         