[TITLE]
;;Project Title/Notes

[OPTIONS]
;;Option             Value
FLOW_UNITS           CFS
INFILTRATION         GREEN_AMPT
FLOW_ROUTING         DYNWAVE
LINK_OFFSETS         DEPTH
MIN_SLOPE            0
ALLOW_PONDING        NO
SKIP_STEADY_STATE    NO

START_DATE           01/01/2002
START_TIME           00:00:00
REPORT_START_DATE    01/01/2002
REPORT_START_TIME    00:00:00
END_DATE             01/02/2002
END_TIME             06:00:00
SWEEP_START          01/01
SWEEP_END            12/31
DRY_DAYS             5.000000
REPORT_STEP          00:05:00
WET_STEP             00:05:00
DRY_STEP             01:00:00
ROUTING_STEP         0:00:01 

INERTIAL_DAMPING     NONE
NORMAL_FLOW_LIMITED  BOTH
FORCE_MAIN_EQUATION  H-W
VARIABLE_STEP        0.75
LENGTHENING_STEP     1
MIN_SURFAREA         0
MAX_TRIALS           0
HEAD_TOLERANCE       0
SYS_FLOW_TOL         5
LAT_FLOW_TOL         5
MINIMUM_STEP         0.5
THREADS              1

[EVAPORATION]
;;Data Source    Parameters
;;-------------- ----------------
CONSTANT         0.0
DRY_ONLY         NO

[RAINGAGES]
;;Name           Format    Interval SCF      Source    
;;-------------- --------- ------ ------ ----------
CALUMETWRP       INTENSITY 0.016667 1.000000 TIMESERIES 05YR_12HR       

[SUBCATCHMENTS]
;;Name           Rain Gage        Outlet           Area     %Imperv  Width    %Slope   CurbLen  SnowPack        
;;-------------- ---------------- ---------------- -------- -------- -------- -------- -------- ----------------
01               CALUMETWRP       JN01             331.985000 53.000000 22498.394364 0.686000 0.000000                 
02A              CALUMETWRP       JN02A            98.852000 39.000000 10369.220378 0.971000 0.000000                 
02B              CALUMETWRP       JN02B            403.324000 44.000000 12516.821744 0.505000 0.000000                 
03               CALUMETWRP       JN03             164.171000 49.000000 13446.130726 0.582000 0.000000                 
04               CALUMETWRP       JN04             383.478000 60.000000 24787.062328 1.056000 0.000000                 
05               CALUMETWRP       JN05             1211.203000 42.000000 19830.962738 0.668000 0.000000                 
06               CALUMETWRP       JN06             691.978000 44.000000 18670.829850 0.732000 0.000000                 
07               CALUMETWRP       JN07             971.341000 43.000000 21066.677339 0.528000 0.000000                 
08               CALUMETWRP       JN08             432.652000 44.000000 11470.329135 0.652000 0.000000                 
09               CALUMETWRP       JN09             726.116000 45.000000 17072.741897 0.655000 0.000000                 
10               CALUMETWRP       JN10             152.781000 41.000000 5016.054240 0.310000 0.000000                 
11               CALUMETWRP       JN11             1010.426000 41.000000 20413.231077 0.441000 0.000000                 
12               CALUMETWRP       JN12             199.642000 55.000000 6003.465678 0.700000 0.000000                 
13               CALUMETWRP       JN13             150.569000 51.000000 6469.177666 0.607000 0.000000                 
14               CALUMETWRP       JN14             576.045000 50.000000 14294.321171 0.623000 0.000000                 
15               CALUMETWRP       JN15             333.426000 47.000000 13550.958209 0.450000 0.000000                 
16               CALUMETWRP       JN16             149.174000 42.000000 6936.909720 0.943000 0.000000                 
17A              CALUMETWRP       JN17A            136.725000 39.000000 7354.281725 0.759000 0.000000                 
17B              CALUMETWRP       JN17B            444.400000 53.000000 12244.691100 0.996000 0.000000                 
18               CALUMETWRP       JN18             260.864000 47.000000 7199.462609 0.279000 0.000000                 
19               CALUMETWRP       JN19             1259.761000 42.000000 19108.798282 0.629000 0.000000                 
20               CALUMETWRP       JN20             163.926000 60.000000 6521.517857 0.334000 0.000000                 
21               CALUMETWRP       JN21             609.334000 48.000000 20407.612383 0.640000 0.000000                 
22               CALUMETWRP       JN22             41.674000 40.000000 3169.679420 0.698000 0.000000                 
23               CALUMETWRP       JN23             319.679000 41.000000 7866.590063 0.491000 0.000000                 
24               CALUMETWRP       JN24             76.438000 41.000000 3925.350468 0.665000 0.000000                 
25               CALUMETWRP       JN25             113.262000 41.000000 5040.577520 0.444000 0.000000                 
26               CALUMETWRP       JN26             354.593000 42.000000 8939.867192 1.174000 0.000000                 
27               CALUMETWRP       JN27             303.877000 51.000000 9811.711716 0.382000 0.000000                 
28               CALUMETWRP       JN28             329.158000 52.000000 8700.176384 0.996000 0.000000                 
29               CALUMETWRP       JN29             146.303000 44.000000 5270.553081 1.276000 0.000000                 
30               CALUMETWRP       JN30             332.973000 46.000000 9296.523687 0.488000 0.000000                 
31               CALUMETWRP       JN31             329.007000 44.000000 9372.543219 0.299000 0.000000                 
32               CALUMETWRP       JN32             150.947000 50.000000 5713.902121 1.009000 0.000000                 
33               CALUMETWRP       JN33             480.068000 49.000000 14567.312096 0.728000 0.000000                 
34               CALUMETWRP       JN34             477.714000 48.000000 11816.367936 0.451000 0.000000                 
35               CALUMETWRP       JN35             277.479000 47.000000 8400.374042 0.365000 0.000000                 
36               CALUMETWRP       JN36             260.136000 40.000000 12606.101609 0.601000 0.000000                 
37               CALUMETWRP       JN37             113.991000 33.000000 4902.861770 0.295000 0.000000                 
38               CALUMETWRP       JN38             712.014000 43.000000 15208.427413 0.473000 0.000000                 
39               CALUMETWRP       JN39             265.241000 42.000000 9558.854243 0.281000 0.000000                 
40               CALUMETWRP       JN40             131.976000 41.000000 4819.605671 0.433000 0.000000                 
41               CALUMETWRP       JN41             431.591000 44.000000 12430.759186 0.414000 0.000000                 
42               CALUMETWRP       JN42             98.590000 42.000000 4821.307370 0.322000 0.000000                 
43               CALUMETWRP       JN43             211.833000 37.000000 9145.627813 1.171000 0.000000                 
44               CALUMETWRP       JN44             217.631000 40.000000 11734.049056 0.289000 0.000000                 
45               CALUMETWRP       JN45             101.062000 40.000000 5217.656176 0.311000 0.000000                 
46               CALUMETWRP       JN46             205.509000 41.000000 6657.314282 0.218000 0.000000                 
47               CALUMETWRP       JN47             27.227000 40.000000 2607.172652 0.728000 0.000000                 
48               CALUMETWRP       JN48             54.560000 34.000000 3398.730623 0.585000 0.000000                 
49               CALUMETWRP       JN49             396.625000 42.000000 17771.100895 0.947000 0.000000                 
50               CALUMETWRP       JN50             120.772000 42.000000 6571.500017 0.532000 0.000000                 
51               CALUMETWRP       JN51             239.243000 49.000000 8916.495095 0.310000 0.000000                 
52               CALUMETWRP       JN52             754.090000 47.000000 13628.435528 0.734000 0.000000                 
53               CALUMETWRP       JN53             159.089000 35.000000 7564.582126 0.659000 0.000000                 
54               CALUMETWRP       JN54             158.297000 35.000000 5287.424863 1.001000 0.000000                 
55               CALUMETWRP       JN55             445.657000 41.000000 11106.870671 1.467000 0.000000                 
56               CALUMETWRP       JN56             158.043000 38.000000 6083.241698 1.964000 0.000000                 
57               CALUMETWRP       JN57             913.413000 46.000000 13341.972478 0.931000 0.000000                 
58               CALUMETWRP       JN58             891.570000 42.000000 12917.996676 1.521000 0.000000                 
59               CALUMETWRP       JN59             223.320000 42.000000 6314.509009 0.289000 0.000000                 
60               CALUMETWRP       JN60             104.950000 40.000000 4384.735677 0.533000 0.000000                 
61               CALUMETWRP       JN61             363.937000 48.000000 13417.728514 0.942000 0.000000                 
62               CALUMETWRP       JN62             56.030000 43.000000 3647.925189 0.427000 0.000000                 
63               CALUMETWRP       JN63             464.192000 44.000000 12936.712054 0.438000 0.000000                 
64               CALUMETWRP       JN64             49.962000 37.000000 4370.712092 0.548000 0.000000                 
65               CALUMETWRP       JN65             246.293000 45.000000 8545.097808 2.969000 0.000000                 
66               CALUMETWRP       JN66             37.159000 47.000000 3132.415199 0.623000 0.000000                 
68               CALUMETWRP       JN68             77.581000 44.000000 3900.889769 0.858000 0.000000                 
MS001            CALUMETWRP       JN_MS001         1670.036000 43.650000 21507.839707 1.019000 0.000000                 
MS003            CALUMETWRP       JN_MS003         81.542000 40.000000 5994.883437 2.575000 0.000000                 
MS005            CALUMETWRP       JN_MS005         217.808000 50.671000 7891.320270 1.829000 0.000000                 
MS008            CALUMETWRP       JN_MS008         386.569000 46.191000 11763.295047 0.770000 0.000000                 
MS011            CALUMETWRP       JN_MS011         619.027000 44.886000 17356.222145 1.116000 0.000000                 
MS012            CALUMETWRP       JN_MS012         391.631000 47.052000 9024.703728 0.562000 0.000000                 
MS013            CALUMETWRP       JN_MS013         1939.950000 47.669000 28717.097351 0.873000 0.000000                 
MS014            CALUMETWRP       JN_MS014         13.729000 40.000000 2293.265093 0.890000 0.000000                 
MS015            CALUMETWRP       JN_MS015         122.522000 48.030000 4636.025117 0.579000 0.000000                 
MS016            CALUMETWRP       JN_MS016         2350.984000 51.462000 32573.363244 1.654000 0.000000                 
MS017            CALUMETWRP       JN_MS017         269.073000 55.358000 8216.158392 0.387000 0.000000                 
MS018            CALUMETWRP       JN_MS018         2356.694000 49.010000 25640.817972 0.505000 0.000000                 
MS020            CALUMETWRP       JN_MS020         403.852000 52.575000 11455.927237 0.668000 0.000000                 
MS021            CALUMETWRP       JN_MS021         39.903000 60.000000 2342.760023 1.144000 0.000000                 
MS024            CALUMETWRP       JN_MS024         362.470000 49.063000 12725.390941 1.575000 0.000000                 
MS026            CALUMETWRP       JN_MS026         1661.931000 54.572000 32650.155538 0.549000 0.000000                 
MS028            CALUMETWRP       JN_MS028         38.863000 70.000000 2870.705944 0.792000 0.000000                 
MS029            CALUMETWRP       JN_MS029         487.878000 52.983000 18028.045357 0.288000 0.000000                 
MS030            CALUMETWRP       JN_MS030         1025.438000 47.911000 24133.630785 0.348000 0.000000                 
MS031            CALUMETWRP       JN_MS031         315.689000 50.696000 10858.186771 0.484000 0.000000                 
MS032            CALUMETWRP       JN_MS032         1293.790000 47.918000 17576.420454 0.945000 0.000000                 
MS033            CALUMETWRP       JN_MS033         76.480000 52.160000 4489.977820 0.422000 0.000000                 
MS034            CALUMETWRP       JN_MS034         606.929000 45.040000 32522.799870 0.458000 0.000000                 
MS035            CALUMETWRP       JN_MS035         216.041000 40.000000 6404.957053 0.367000 0.000000                 
MS036            CALUMETWRP       JN_MS036         443.368000 40.000000 15434.357639 0.803000 0.000000                 
MS037            CALUMETWRP       JN_MS037         353.072000 49.527000 13455.163797 0.741000 0.000000                 
MS038            CALUMETWRP       JN_MS038         93.846000 40.433000 4977.376729 0.923000 0.000000                 
MS040            CALUMETWRP       JN_MS040         256.712000 40.959000 10678.575610 0.893000 0.000000                 
MS041            CALUMETWRP       JN_MS041         167.573000 43.324000 7251.904967 0.518000 0.000000                 
MS042            CALUMETWRP       JN_MS042         547.376000 50.011000 27412.496167 0.674000 0.000000                 
MS043            CALUMETWRP       JN_MS043         116.339000 40.000000 5716.605117 0.858000 0.000000                 
MS044            CALUMETWRP       JN_MS044         188.529000 42.819000 9186.730935 0.553000 0.000000                 
MS045            CALUMETWRP       JN_MS045         46.315000 40.000000 5136.209496 1.350000 0.000000                 
MS049            CALUMETWRP       JN_MS049         582.020000 46.167000 13093.499025 0.369000 0.000000                 
MS051            CALUMETWRP       JN_MS051         525.139000 54.794000 11466.150805 0.579000 0.000000                 
MS054            CALUMETWRP       JN_MS054         1069.899000 42.558000 19388.091281 1.026000 0.000000                 
MS057            CALUMETWRP       JN_MS057         277.578000 53.562000 12640.341796 0.482000 0.000000                 
MS059            CALUMETWRP       JN_MS059         51.650000 54.322000 4608.874300 1.065000 0.000000                 
MS060            CALUMETWRP       JN_MS060         270.123000 45.362000 8697.778250 1.252000 0.000000                 
MS061            CALUMETWRP       JN_MS061         374.683000 61.296000 10142.325208 0.853000 0.000000                 
MS062            CALUMETWRP       JN_MS062         75.559000 35.242000 4412.751989 3.234000 0.000000                 
MS069            CALUMETWRP       JN_MS069         262.570000 41.070000 7368.595386 0.973000 0.000000                 
MS070            CALUMETWRP       JN_MS070         465.855000 65.235000 13715.472683 0.254000 0.000000                 
MS071            CALUMETWRP       JN_MS071         411.587000 40.994000 11809.364848 2.114000 0.000000                 
MS072            CALUMETWRP       JN_MS072         228.209000 37.490000 8757.770561 0.401000 0.000000                 
MS093            CALUMETWRP       JN_MS093         4282.089000 44.641000 56730.278974 1.159000 0.000000                 
MS094            CALUMETWRP       JN_MS094         5379.535000 50.185000 67668.138184 1.392000 0.000000                 
MS095            CALUMETWRP       JN_MS095         4554.875000 45.780000 56220.982243 0.803000 0.000000                 
MS100            CALUMETWRP       JN_MS100         45.544000 40.000000 4066.945024 0.851000 0.000000                 
MS101            CALUMETWRP       JN_MS101         122.939000 44.592000 8556.959507 0.751000 0.000000                 
MS103            CALUMETWRP       JN_MS103         51.479000 40.000000 6227.239368 0.582000 0.000000                 
MS105            CALUMETWRP       JN_MS105         297.152000 46.801000 8908.615378 0.319000 0.000000                 
MS106            CALUMETWRP       JN_MS106         53.726000 40.000000 6505.633598 0.424000 0.000000                 
MS111A           CALUMETWRP       JN_MS111A        604.361000 44.781000 16379.355571 0.381000 0.000000                 
MS112            CALUMETWRP       JN_MS112         102.890000 44.185000 7592.347919 0.556000 0.000000                 
MS113            CALUMETWRP       JN_MS113         86.179000 40.000000 3399.340078 1.551000 0.000000                 
MS114A           CALUMETWRP       JN_MS114A        612.320000 44.261000 13905.059200 0.303000 0.000000                 
MS115            CALUMETWRP       JN_MS115         708.396000 48.164000 18588.194005 0.416000 0.000000                 
MS116            CALUMETWRP       JN_MS116         78.775000 42.604000 4044.042507 1.125000 0.000000                 
MS117            CALUMETWRP       JN_MS117         5518.107000 45.719000 54829.011090 0.525000 0.000000                 
MS118            CALUMETWRP       JN_MS118         277.351000 57.752000 13538.751001 1.738000 0.000000                 
MS119            CALUMETWRP       JN_MS119         353.143000 46.615000 10295.702421 0.485000 0.000000                 
MS120            CALUMETWRP       JN_MS120         36.544000 58.616000 4203.590078 0.614000 0.000000                 
MS121            CALUMETWRP       JN_MS121         905.771000 47.817000 17544.820654 0.353000 0.000000                 
MS122            CALUMETWRP       JN_MS122         285.342000 52.718000 9553.317806 1.643000 0.000000                 
MS124            CALUMETWRP       JN_MS124         1923.424000 47.409000 30257.057162 0.263000 0.000000                 
MS127            CALUMETWRP       JN_MS127         267.962000 63.353000 10725.504040 1.995000 0.000000                 
MS128            CALUMETWRP       JN_MS128         746.096000 50.988000 16964.629283 0.297000 0.000000                 
MS130            CALUMETWRP       JN_MS130         141.602000 53.046000 6930.551108 0.805000 0.000000                 
MS131            CALUMETWRP       JN_MS131         1100.155000 48.009000 25495.050587 0.645000 0.000000                 
MS134            CALUMETWRP       JN_MS134         42.382000 57.166000 3798.885035 0.691000 0.000000                 
MS136            CALUMETWRP       JN_MS136         152.917000 68.178000 5480.552958 1.976000 0.000000                 
MS137            CALUMETWRP       JN_MS137         315.650000 50.505000 7809.690783 0.423000 0.000000                 
MS138            CALUMETWRP       JN_MS138         2214.564000 45.604000 31575.766675 0.421000 0.000000                 
MS139            CALUMETWRP       JN_MS139         23.962000 70.000000 2974.422569 2.620000 0.000000                 
MS141            CALUMETWRP       JN_MS141         36.358000 51.250000 4234.522770 1.094000 0.000000                 
MS142            CALUMETWRP       JN_MS142         76.601000 70.000000 4718.049591 0.984000 0.000000                 
MS144            CALUMETWRP       JN_MS144         48.080000 62.871000 4351.741393 0.331000 0.000000                 
MS144A           CALUMETWRP       JN_MS144A        716.254000 51.102000 15472.858287 0.439000 0.000000                 
MS146            CALUMETWRP       JN_MS146         714.810000 44.061000 20777.000996 0.288000 0.000000                 
MS149            CALUMETWRP       JN_MS149         46.065000 69.900000 4425.003033 1.239000 0.000000                 
MS150            CALUMETWRP       JN_MS150         130.014000 70.105000 7326.163962 2.855000 0.000000                 
MS151            CALUMETWRP       JN_MS151         49.037000 64.286000 3413.992406 0.470000 0.000000                 
MS152            CALUMETWRP       JN_MS152         36.917000 68.013000 3721.691293 3.009000 0.000000                 
MS153            CALUMETWRP       JN_MS153         30.865000 62.164000 2417.634107 0.317000 0.000000                 
MS154            CALUMETWRP       JN_MS154         36.854000 70.000000 3150.250504 2.844000 0.000000                 
MS157            CALUMETWRP       JN_MS157         768.930000 57.941000 18374.019216 1.281000 0.000000                 
MS159            CALUMETWRP       JN_MS159         277.556000 45.340000 11311.597157 2.218000 0.000000                 
MS161            CALUMETWRP       JN_MS161         140.982000 62.015000 14217.207872 1.183000 0.000000                 
MS162            CALUMETWRP       JN_MS162         122.063000 60.000000 7225.582268 2.359000 0.000000                 
MS163            CALUMETWRP       JN_MS163         164.135000 60.000000 7443.382585 0.279000 0.000000                 
MS168            CALUMETWRP       JN_MS168         74.758000 60.000000 7180.033425 0.299000 0.000000                 
MS172            CALUMETWRP       JN_MS172         181.258000 60.037000 7765.733799 0.405000 0.000000                 
MS176            CALUMETWRP       JN_MS176         65.989000 60.000000 5005.601527 2.125000 0.000000                 
MS178            CALUMETWRP       JN_MS178         1071.605000 57.253000 23033.459496 0.590000 0.000000                 
MS182            CALUMETWRP       JN_MS182         217.031000 60.000000 5606.957485 1.642000 0.000000                 
MS185            CALUMETWRP       JN_MS185         112.270000 63.484000 6256.544023 1.866000 0.000000                 
MS186            CALUMETWRP       JN_MS186         196.022000 51.194000 6903.489767 1.423000 0.000000                 
MS187            CALUMETWRP       JN_MS187         98.407000 64.687000 4587.791685 0.955000 0.000000                 
MS189            CALUMETWRP       JN_MS189         49.495000 64.734000 4258.012210 0.916000 0.000000                 
MS191            CALUMETWRP       JN_MS191         57.533000 65.502000 4310.104095 1.374000 0.000000                 
MS193            CALUMETWRP       JN_MS193         28.439000 65.000000 4163.101882 1.072000 0.000000                 
MS194            CALUMETWRP       JN_MS194         26.986000 63.636000 4016.765028 0.945000 0.000000                 
MS197            CALUMETWRP       JN_MS197         63.188000 61.957000 3995.844377 0.984000 0.000000                 
MS199            CALUMETWRP       JN_MS199         63.988000 53.863000 3983.365205 0.950000 0.000000                 
MS204            CALUMETWRP       JN_MS204         31.833000 67.704000 3577.431353 0.968000 0.000000                 
MS208            CALUMETWRP       JN_MS208         581.718000 55.963000 17446.517410 0.792000 0.000000                 
MS209            CALUMETWRP       JN_MS209         82.081000 68.149000 7008.418148 0.594000 0.000000                 
MS211            CALUMETWRP       JN_MS211         96.706000 55.880000 7029.338799 0.729000 0.000000                 
MS213            CALUMETWRP       JN_MS213         155.440000 61.935000 8055.608810 0.900000 0.000000                 
MS218            CALUMETWRP       JN_MS218         2514.685000 53.321000 33912.375574 0.711000 0.000000                 
MS219            CALUMETWRP       JN_MS219         120.655000 48.807000 11746.472129 0.669000 0.000000                 
MS220            CALUMETWRP       JN_MS220         609.020000 56.700000 12531.470061 0.902000 0.000000                 
MS222            CALUMETWRP       JN_MS222         416.576000 58.719000 8870.356103 1.155000 0.000000                 
MS225            CALUMETWRP       JN_MS225         2809.026000 52.648000 44102.626753 0.559000 0.000000                 
MS226            CALUMETWRP       JN_MS226         1574.440000 47.705000 24236.100887 0.715000 0.000000                 
MS228            CALUMETWRP       JN_MS228         1660.128000 55.737000 29395.408968 0.545000 0.000000                 
MS230            CALUMETWRP       JN_MS230         1067.483000 49.946000 25407.657354 0.564000 0.000000                 
MS231            CALUMETWRP       JN_MS231         128.002000 63.290000 8577.466987 2.462000 0.000000                 
MS232            CALUMETWRP       JN_MS232         411.806000 68.153000 10627.690803 0.947000 0.000000                 
MS234            CALUMETWRP       JN_MS234         358.779000 51.836000 10188.357128 1.637000 0.000000                 
MS235            CALUMETWRP       JN_MS235         930.635000 50.467000 19979.221883 0.503000 0.000000                 
MS236            CALUMETWRP       JN_MS236         1790.086000 55.846000 25441.405894 0.525000 0.000000                 
MS237            CALUMETWRP       JN_MS237         7647.611000 52.581000 71959.538987 0.472000 0.000000                 
MS238            CALUMETWRP       JN_MS238         302.956000 56.484000 8431.022428 1.596000 0.000000                 
MS239            CALUMETWRP       JN_MS239         9165.488000 49.731000 52071.500804 0.487000 0.000000                 
MS240            CALUMETWRP       JN_MS240         1191.854000 62.317000 21234.460955 1.821000 0.000000                 
MS240-1          CALUMETWRP       JN_MS240-1       1933.002000 46.053000 22008.525049 0.436000 0.000000                 
MS241            CALUMETWRP       JN_MS241         139.727000 78.154000 6234.354054 1.068000 0.000000                 
MS242            CALUMETWRP       JN_MS242         63.580000 72.094000 5104.638890 0.767000 0.000000                 
MS245            CALUMETWRP       JN_MS245         594.852000 53.541000 12029.374432 0.614000 0.000000                 
MS247            CALUMETWRP       JN_MS247         46.146000 65.500000 3514.669399 0.166000 0.000000                 
MS249            CALUMETWRP       JN_MS249         24937.768000 49.445000 97020.069545 0.850000 0.000000                 
MS250            CALUMETWRP       JN_MS250         1210.013000 47.680000 32887.263666 0.426000 0.000000                 
MS251            CALUMETWRP       JN_MS251         4407.143000 53.988000 36173.226440 0.626000 0.000000                 
MS254            CALUMETWRP       JN_MS254         2281.980000 50.583000 64506.761697 1.143000 0.000000                 
MS255            CALUMETWRP       JN_MS255         4264.778000 45.892000 62083.761653 0.454000 0.000000                 
MS257            CALUMETWRP       JN_MS257         55.238000 59.876000 3681.915016 6.593000 0.000000                 
MS258            CALUMETWRP       JN_MS258         161.496000 55.562000 5582.327092 2.437000 0.000000                 
MS259            CALUMETWRP       JN_MS259         62.146000 65.827000 4414.257400 4.501000 0.000000                 
MS262            CALUMETWRP       JN_MS262         532.689000 47.316000 11046.103827 2.512000 0.000000                 
MS263            CALUMETWRP       JN_MS263         431.100000 54.232000 11746.308875 1.886000 0.000000                 
MS264            CALUMETWRP       JN_MS264         1612.306000 56.063000 47050.544519 1.689000 0.000000                 
MS265            CALUMETWRP       JN_MS265         1934.753000 46.770000 27280.529148 2.036000 0.000000                 

[SUBAREAS]
;;Subcatchment   N-Imperv   N-Perv     S-Imperv   S-Perv     PctZero    RouteTo    PctRouted 
;;-------------- ---------- ---------- ---------- ---------- ---------- ---------- ----------
01               0.015000   0.200000   0.200000   0.200000   50.000000  IMPERVIOUS 100.000000
02A              0.015000   0.200000   0.200000   0.200000   50.000000  IMPERVIOUS 100.000000
02B              0.015000   0.200000   0.200000   0.200000   50.000000  IMPERVIOUS 100.000000
03               0.015000   0.200000   0.200000   0.200000   50.000000  IMPERVIOUS 100.000000
04               0.015000   0.200000   0.200000   0.200000   50.000000  IMPERVIOUS 100.000000
05               0.015000   0.200000   0.200000   0.200000   50.000000  IMPERVIOUS 100.000000
06               0.015000   0.200000   0.200000   0.200000   50.000000  IMPERVIOUS 100.000000
07               0.015000   0.200000   0.200000   0.200000   50.000000  IMPERVIOUS 100.000000
08               0.015000   0.200000   0.200000   0.200000   50.000000  IMPERVIOUS 100.000000
09               0.015000   0.200000   0.200000   0.200000   50.000000  IMPERVIOUS 100.000000
10               0.015000   0.200000   0.200000   0.200000   50.000000  IMPERVIOUS 100.000000
11               0.015000   0.200000   0.200000   0.200000   50.000000  IMPERVIOUS 100.000000
12               0.015000   0.200000   0.200000   0.200000   50.000000  IMPERVIOUS 100.000000
13               0.015000   0.200000   0.200000   0.200000   50.000000  IMPERVIOUS 100.000000
14               0.015000   0.200000   0.200000   0.200000   50.000000  IMPERVIOUS 100.000000
15               0.015000   0.200000   0.200000   0.200000   50.000000  IMPERVIOUS 100.000000
16               0.015000   0.200000   0.200000   0.200000   50.000000  IMPERVIOUS 100.000000
17A              0.015000   0.200000   0.200000   0.200000   50.000000  IMPERVIOUS 100.000000
17B              0.015000   0.200000   0.200000   0.200000   50.000000  IMPERVIOUS 100.000000
18               0.015000   0.200000   0.200000   0.200000   50.000000  IMPERVIOUS 100.000000
19               0.015000   0.200000   0.200000   0.200000   50.000000  IMPERVIOUS 100.000000
20               0.015000   0.200000   0.200000   0.200000   50.000000  IMPERVIOUS 100.000000
21               0.015000   0.200000   0.200000   0.200000   50.000000  IMPERVIOUS 100.000000
22               0.015000   0.200000   0.200000   0.200000   50.000000  IMPERVIOUS 100.000000
23               0.015000   0.200000   0.200000   0.200000   50.000000  IMPERVIOUS 100.000000
24               0.015000   0.200000   0.200000   0.200000   50.000000  IMPERVIOUS 100.000000
25               0.015000   0.200000   0.200000   0.200000   50.000000  IMPERVIOUS 100.000000
26               0.015000   0.200000   0.200000   0.200000   50.000000  IMPERVIOUS 100.000000
27               0.015000   0.200000   0.200000   0.200000   50.000000  IMPERVIOUS 100.000000
28               0.015000   0.200000   0.200000   0.200000   50.000000  IMPERVIOUS 100.000000