[TITLE]
;;Project Title/Notes

[OPTIONS]
;;Option             Value
FLOW_UNITS           CFS
INFILTRATION         HORTON
FLOW_ROUTING         DYNWAVE
LINK_OFFSETS         DEPTH
MIN_SLOPE            0
ALLOW_PONDING        NO
SKIP_STEADY_STATE    NO

START_DATE           01/01/2002
START_TIME           00:00:00
REPORT_START_DATE    01/01/2002
REPORT_START_TIME    00:00:00
END_DATE             01/01/2002
END_TIME             00:00:00
SWEEP_START          01/01
SWEEP_END            12/31
DRY_DAYS             5.000000
REPORT_STEP          00:05:00
WET_STEP             01:00:00
DRY_STEP             23:00:00
ROUTING_STEP         0:05:00 

INERTIAL_DAMPING     NONE
NORMAL_FLOW_LIMITED  BOTH
FORCE_MAIN_EQUATION  H-W
VARIABLE_STEP        0.75
LENGTHENING_STEP     0
MIN_SURFAREA         0
MAX_TRIALS           0
HEAD_TOLERANCE       0
SYS_FLOW_TOL         5
LAT_FLOW_TOL         5
MINIMUM_STEP         0.5
THREADS              1

[EVAPORATION]
;;Data Source    Parameters
;;-------------- ----------------
CONSTANT         0.0
DRY_ONLY         NO

[JUNCTIONS]
;;Name           Elevation  MaxDepth   InitDepth  SurDepth   Aponded   
;;-------------- ---------- ---------- ---------- ---------- ----------
;         1
1                230.350000 11.350000  0.000000   0.000000   0.000000  
;        10
10               229.210000 7.290000   0.000000   0.000000   0.000000  
;       100
100              241.080000 6.720000   0.000000   0.000000   0.000000  
;      1000
1000             336.820000 8.110000   0.000000   0.000000   0.000000  
;      1001
1001             208.880000 6.220000   0.000000   0.000000   0.000000  
;      1002
1002             391.700000 8.130000   0.000000   0.000000   0.000000  
;      1003
1003             190.060000 6.490000   0.000000   0.000000   0.000000  
;      1004
1004             692.810000 7.290000   0.000000   0.000000   0.000000  
;      1005
1005             193.190000 5.510000   0.000000   0.000000   0.000000  
;      1006
1006             642.690000 8.410000   0.000000   0.000000   0.000000  
;      1007
1007             352.580000 7.340000   0.000000   0.000000   0.000000  
; 1008
1008             193.500000 5.500000   0.000000   0.000000   0.000000  
;      1009
1009             533.180000 9.100000   0.000000   0.000000   0.000000  
; 101
101              212.190000 8.990000   0.000000   0.000000   0.000000  
;      1010
1010             540.170000 6.330000   0.000000   0.000000   0.000000  
;      1011
1011             392.560000 8.770000   0.000000   0.000000   0.000000  
;      1012
1012             0.000000   219.920000 0.000000   0.000000   0.000000  
;      1013
1013             186.140000 12.300000  0.000000   0.000000   0.000000  
;      1014
1014             192.360000 7.790000   0.000000   0.000000   0.000000  
;      1015
1015             229.020000 4.980000   0.000000   0.000000   0.000000  
;      1016
1016             196.910000 6.780000   0.000000   0.000000   0.000000  
;      1017
1017             477.240000 14.960000  0.000000   0.000000   0.000000  
;      1018
1018             190.530000 5.470000   0.000000   0.000000   0.000000  
;      1019
1019             373.840000 7.890000   0.000000   0.000000   0.000000  
;       102
102              226.380000 5.880000   0.000000   0.000000   0.000000  
;      1020
1020             191.240000 5.360000   0.000000   0.000000   0.000000  
;      1021
1021             191.430000 5.710000   0.000000   0.000000   0.000000  
;      1022
1022             191.830000 6.000000   0.000000   0.000000   0.000000  
; New Manhole
10228            163.900000 7.600000   0.000000   0.000000   0.000000  
;      1023
1023             551.820000 8.090000   0.000000   0.000000   0.000000  
; New Manhole
10230            160.260000 8.340000   0.000000   0.000000   0.000000  
; New Manhole
10232            160.140000 8.860000   0.000000   0.000000   0.000000  
; New Manhole
10234            155.180000 13.820000  0.000000   0.000000   0.000000  
;      1024
1024             286.820000 14.380000  0.000000   0.000000   0.000000  
;      1025
1025             221.030000 7.270000   0.000000   0.000000   0.000000  
;      1026
1026             569.000000 8.100000   0.000000   0.000000   0.000000  
;      1027
1027             196.020000 14.980000  0.000000   0.000000   0.000000  
;      1028
1028             188.540000 6.910000   0.000000   0.000000   0.000000  
;      1029
1029             385.660000 8.070000   0.000000   0.000000   0.000000  
;       103
103              263.910000 6.240000   0.000000   0.000000   0.000000  
;      1030
1030             503.170000 8.230000   0.000000   0.000000   0.000000  
;      1031
1031             192.420000 9.300000   0.000000   0.000000   0.000000  
;      1032
1032             187.420000 6.900000   0.000000   0.000000   0.000000  
;      1033
1033             539.380000 8.330000   0.000000   0.000000   0.000000  
; 1034
1034             228.700000 5.300000   0.000000   0.000000   0.000000  
;      1035
1035             382.960000 6.490000   0.000000   0.000000   0.000000  
;      1036
1036             587.920000 8.680000   0.000000   0.000000   0.000000  
;      1037
1037             227.830000 9.470000   0.000000   0.000000   0.000000  
;      1038
1038             671.880000 8.210000   0.000000   0.000000   0.000000  
;      1039
1039             560.880000 6.220000   0.000000   0.000000   0.000000  
;       104
104              217.030000 6.670000   0.000000   0.000000   0.000000  
;      1040
1040             233.570000 7.230000   0.000000   0.000000   0.000000  
;      1041
1041             695.500000 7.550000   0.000000   0.000000   0.000000  
;      1042
1042             234.310000 8.990000   0.000000   0.000000   0.000000  
;      1043
1043             235.010000 9.590000   0.000000   0.000000   0.000000  
;      1044
1044             240.870000 7.530000   0.000000   0.000000   0.000000  
;      1045
1045             246.970000 7.830000   0.000000   0.000000   0.000000  
;      1046
1046             253.450000 8.050000   0.000000   0.000000   0.000000  
;      1047
1047             560.220000 10.280000  0.000000   0.000000   0.000000  
;      1048
1048             262.300000 6.270000   0.000000   0.000000   0.000000  
;      1049
1049             584.000000 7.000000   0.000000   0.000000   0.000000  
; 105
105              215.850000 7.350000   0.000000   0.000000   0.000000  
;      1050
1050             265.250000 6.140000   0.000000   0.000000   0.000000  
;      1051
1051             600.000000 7.300000   0.000000   0.000000   0.000000  
; 1052
1052             191.030000 5.670000   0.000000   0.000000   0.000000  
;      1053
1053             221.380000 6.420000   0.000000   0.000000   0.000000  
;      1054
1054             475.460000 8.540000   0.000000   0.000000   0.000000  
;      1055
1055             460.400000 7.310000   0.000000   0.000000   0.000000  
;      1056
1056             224.480000 7.720000   0.000000   0.000000   0.000000  
;      1057
1057             191.330000 6.770000   0.000000   0.000000   0.000000  
;      1058
1058             550.480000 9.120000   0.000000   0.000000   0.000000  
;      1059
1059             541.970000 10.000000  0.000000   0.000000   0.000000  
;       106
106              250.620000 3.080000   0.000000   0.000000   0.000000  
;      1060
1060             480.410000 8.790000   0.000000   0.000000   0.000000  
;      1061
1061             360.700000 7.620000   0.000000   0.000000   0.000000  
;      1062
1062             590.100000 7.000000   0.000000   0.000000   0.000000  
;      1063
1063             190.540000 6.060000   0.000000   0.000000   0.000000  
;      1064
1064             374.330000 6.700000   0.000000   0.000000   0.000000  
;      1065
1065             493.630000 8.020000   0.000000   0.000000   0.000000  
;      1066
1066             645.800000 7.200000   0.000000   0.000000   0.000000  
;      1067
1067             669.580000 7.220000   0.000000   0.000000   0.000000  
;      1068
1068             188.470000 5.010000   0.000000   0.000000   0.000000  
;      1069
1069             547.420000 8.100000   0.000000   0.000000   0.000000  
;       107
107              228.330000 6.590000   0.000000   0.000000   0.000000  
;      1070
1070             476.060000 9.240000   0.000000   0.000000   0.000000  
;      1071
1071             549.850000 9.250000   0.000000   0.000000   0.000000  
;      1072
1072             187.620000 5.500000   0.000000   0.000000   0.000000  
;      1073
1073             186.690000 6.630000   0.000000   0.000000   0.000000  
;      1074
1074             189.720000 6.130000   0.000000   0.000000   0.000000  
;      1075
1075             484.850000 7.750000   0.000000   0.000000   0.000000  
;      1076
1076             185.220000 12.520000  0.000000   0.000000   0.000000  
;      1077
1077             189.230000 10.800000  0.000000   0.000000   0.000000  
;      1078
1078             540.280000 10.320000  0.000000   0.000000   0.000000  
;      1079
1079             530.250000 7.950000   0.000000   0.000000   0.000000  
;       108
108              261.370000 6.580000   0.000000   0.000000   0.000000  
;      1080
1080             540.880000 9.910000   0.000000   0.000000   0.000000  
;      1081
1081             373.000000 8.800000   0.000000   0.000000   0.000000  
;      1082
1082             189.620000 3.660000   0.000000   0.000000   0.000000  
;      1083
1083             356.000000 6.000000   0.000000   0.000000   0.000000  
;      1084
1084             190.080000 5.420000   0.000000   0.000000   0.000000  
;      1085
1085             352.740000 5.580000   0.000000   0.000000   0.000000  
;      1086
1086             653.660000 7.500000   0.000000   0.000000   0.000000  
;      1087
1087             475.890000 8.900000   0.000000   0.000000   0.000000  
;      1088
1088             554.070000 4.930000   0.000000   0.000000   0.000000  
;      1089
1089             486.430000 8.170000   0.000000   0.000000   0.000000  
;       109
109              226.200000 5.000000   0.000000   0.000000   0.000000  
; 1090
1090             195.510000 14.990000  0.000000   0.000000   0.000000  
;      1091
1091             193.020000 8.070000   0.000000   0.000000   0.000000  
;      1092
1092             555.210000 7.190000   0.000000   0.000000   0.000000  
;      1093
1093             194.650000 7.520000   0.000000   0.000000   0.000000  
;      1094
1094             286.580000 8.820000   0.000000   0.000000   0.000000  
;      1095
1095             552.600000 6.100000   0.000000   0.000000   0.000000  
;      1096
1096             299.790000 2.310000   0.000000   0.000000   0.000000  
;      1097
1097             195.080000 7.710000   0.000000   0.000000   0.000000  
;      1098
1098             570.620000 7.780000   0.000000   0.000000   0.000000  
;      1099
1099             345.230000 4.320000   0.000000   0.000000   0.000000  
;        11
11               229.230000 6.210000   0.000000   0.000000   0.000000  
;       110
110              278.610000 6.510000   0.000000   0.000000   0.000000  
;      1100
1100             561.660000 8.010000   0.000000   0.000000   0.000000  
; 1101
1101             192.100000 9.090000   0.000000   0.000000   0.000000  
;      1102
1102             458.970000 7.050000   0.000000   0.000000   0.000000  
;      1103
1103             473.280000 7.120000   0.000000   0.000000   0.000000  
;      1104
1104             278.150000 6.850000   0.000000   0.000000   0.000000  
;      1105
1105             551.340000 7.080000   0.000000   0.000000   0.000000  
;      1106
1106             541.780000 9.610000   0.000000   0.000000   0.000000  
;      1107
1107             551.350000 9.250000   0.000000   0.000000   0.000000  
;      1108
1108             551.460000 11.140000  0.000000   0.000000   0.000000  
;      1109
1109             188.640000 4.580000   0.000000   0.000000   0.000000  
;       111
111              281.850000 8.200000   0.000000   0.000000   0.000000  
;      1110
1110             639.810000 7.920000   0.000000   0.000000   0.000000  
;      1111
1111             548.800000 5.400000   0.000000   0.000000   0.000000  
;      1112
1112             477.050000 7.290000   0.000000   0.000000   0.000000  
;      1113
1113             549.000000 10.100000  0.000000   0.000000   0.000000  
;      1114
1114             186.870000 7.110000   0.000000   0.000000   0.000000  
;      1115
1115             474.510000 3.880000   0.000000   0.000000   0.000000  
;      1116
1116             189.220000 7.280000   0.000000   0.000000   0.000000  
;      1117
1117             479.770000 7.430000   0.000000   0.000000   0.000000  
;      1118
1118             186.670000 6.510000   0.000000   0.000000   0.000000  
;      1119
1119             216.020000 6.180000   0.000000   0.000000   0.000000  
;       112
112              241.890000 6.920000   0.000000   0.000000   0.000000  
;      1120
1120             189.440000 7.210000   0.000000   0.000000   0.000000  
;      1121
1121             216.910000 5.990000   0.000000   0.000000   0.000000  
;      1122
1122             217.560000 6.040000   0.000000   0.000000   0.000000  
;      1123
1123             219.660000 6.540000   0.000000   0.000000   0.000000  
; 1124
1124             222.780000 6.720000   0.000000   0.000000   0.000000  
;      1125
1125             556.300000 7.700000   0.000000   0.000000   0.000000  
;      1126
1126             299.450000 2.670000   0.000000   0.000000   0.000000  
;      1127
1127             190.040000 8.790000   0.000000   0.000000   0.000000  
;      1128
1128             552.120000 9.280000   0.000000   0.000000   0.000000  
;      1129
1129             471.120000 5.280000   0.000000   0.000000   0.000000  
;       113
113              219.910000 6.070000   0.000000   0.000000   0.000000  
;      1130
1130             462.760000 7.910000   0.000000   0.000000   0.000000  
;      1131
1131             652.800000 8.500000   0.000000   0.000000   0.000000  
;      1132
1132             336.440000 4.630000   0.000000   0.000000   0.000000  
;      1133
1133             282.430000 8.170000   0.000000   0.000000   0.000000  
;      1134
1134             458.600000 9.150000   0.000000   0.000000   0.000000  
;      1135
1135             558.280000 7.920000   0.000000   0.000000   0.000000  
;      1136
1136             467.400000 8.400000   0.000000   0.000000   0.000000  
; 1137
1137             193.690000 10.210000  0.000000   0.000000   0.000000  
;      1138
1138             191.120000 6.440000   0.000000   0.000000   0.000000  
;      1139
1139             194.340000 11.780000  0.000000   0.000000   0.000000  
;       114
114              215.470000 7.430000   0.000000   0.000000   0.000000  
;      1140
1140             185.770000 7.410000   0.000000   0.000000   0.000000  
;      1141
1141             637.250000 7.530000   0.000000   0.000000   0.000000  
;      1142
1142             323.150000 6.000000   0.000000   0.000000   0.000000  
;      1143
1143             552.940000 9.460000   0.000000   0.000000   0.000000  
;      1144
1144             569.090000 7.620000   0.000000   0.000000   0.000000  
;      1145
1145             195.030000 15.070000  0.000000   0.000000   0.000000  
;      1146
1146             217.610000 5.690000   0.000000   0.000000   0.000000  
;      1147
1147             218.270000 5.630000   0.000000   0.000000   0.000000  
;      1148
1148             531.550000 8.250000   0.000000   0.000000   0.000000  
;      1149
1149             183.970000 13.330000  0.000000   0.000000   0.000000  
;       115
115              235.850000 14.750000  0.000000   0.000000   0.000000  
;      1150
1150             188.850000 4.200000   0.000000   0.000000   0.000000  
;      1151
1151             188.150000 5.860000   0.000000   0.000000   0.000000  
;      1152
1152             436.840000 13.560000  0.000000   0.000000   0.000000  
;      1153
1153             186.920000 6.300000   0.000000   0.000000   0.000000  
; 1154
1154             185.990000 7.690000   0.000000   0.000000   0.000000  
;      1155
1155             315.530000 5.970000   0.000000   0.000000   0.000000  
;      1156
1156             308.480000 5.720000   0.000000   0.000000   0.000000  
;      1157
1157             306.320000 6.000000   0.000000   0.000000   0.000000  
;      1158
1158             215.510000 5.990000   0.000000   0.000000   0.000000  
;      1159
1159             490.430000 7.470000   0.000000   0.000000   0.000000  
;       116
116              237.960000 12.390000  0.000000   0.000000   0.000000  
;      1160
1160             541.340000 8.070000   0.000000   0.000000   0.000000  
;      1161
1161             484.360000 7.340000   0.000000   0.000000   0.000000  
;      1162
1162             224.970000 6.460000   0.000000   0.000000   0.000000  
;      1163
1163             220.430000 4.560000   0.000000   0.000000   0.000000  
;      1164
1164             226.090000 6.780000   0.000000   0.000000   0.000000  
;      1165
1165             268.070000 8.530000   0.000000   0.000000   0.000000  
;      1166
1166             279.070000 6.930000   0.000000   0.000000   0.000000  
;      1167
1167             323.920000 4.880000   0.000000   0.000000   0.000000  
;      1168
1168             222.350000 4.610000   0.000000   0.000000   0.000000  
;      1169
1169             644.160000 9.040000   0.000000   0.000000   0.000000  
;      1170
1170             445.930000 6.010000   0.000000   0.000000   0.000000  
;      1171
1171             205.420000 5.780000   0.000000   0.000000   0.000000  
;      1172
1172             210.090000 6.660000   0.000000   0.000000   0.000000  
;      1173
1173             205.980000 5.820000   0.000000   0.000000   0.000000  
;      1174
1174             213.630000 6.790000   0.000000   0.000000   0.000000  
;      1175
1175             296.860000 6.620000   0.000000   0.000000   0.000000  
;      1176
1176             186.720000 8.340000   0.000000   0.000000   0.000000  
;      1177
1177             430.940000 6.260000   0.000000   0.000000   0.000000  
;      1178
1178             189.160000 5.840000   0.000000   0.000000   0.000000  
;      1179
1179             454.460000 8.540000   0.000000   0.000000   0.000000  
;       118
118              218.190000 6.310000   0.000000   0.000000   0.000000  
;      1180
1180             532.660000 7.940000   0.000000   0.000000   0.000000  
;      1181
1181             554.080000 7.820000   0.000000   0.000000   0.000000  
;      1182
1182             189.140000 5.860000   0.000000   0.000000   0.000000  
;      1183
1183             466.440000 7.250000   0.000000   0.000000   0.000000  
;      1184
1184             187.240000 8.370000   0.000000   0.000000   0.000000  
;      1186
1186             189.920000 6.920000   0.000000   0.000000   0.000000  
;      1187
1187             326.770000 10.480000  0.000000   0.000000   0.000000  
;      1188
1188             257.810000 10.190000  0.000000   0.000000   0.000000  
;      1189
1189             261.000000 11.800000  0.000000   0.000000   0.000000  
;       119
119              257.630000 6.580000   0.000000   0.000000   0.000000  
;      1190
1190             261.330000 12.970000  0.000000   0.000000   0.000000  
;      1191
1191             252.930000 7.970000   0.000000   0.000000   0.000000  
;      1192
1192             249.000000 8.060000   0.000000   0.000000   0.000000  
; 1193
1193             309.740000 5.070000   0.000000   0.000000   0.000000  
;      1194
1194             603.080000 8.330000   0.000000   0.000000   0.000000  
;      1195
1195             631.980000 7.490000   0.000000   0.000000   0.000000  
;      1196
1196             597.390000 7.940000   0.000000   0.000000   0.000000  
;      1197
1197             420.760000 5.880000   0.000000   0.000000   0.000000  
;      1198
1198             492.360000 7.540000   0.000000   0.000000   0.000000  
;      1199
1199             526.560000 8.040000   0.000000   0.000000   0.000000  
;        12
12               230.120000 5.100000   0.000000   0.000000   0.000000  
;       120
120              241.680000 15.320000  0.000000   0.000000   0.000000  
;      1200
1200             605.330000 8.150000   0.000000   0.000000   0.000000  
;      1201
1201             490.730000 7.070000   0.000000   0.000000   0.000000  
;      1202
1202             449.780000 10.620000  0.000000   0.000000   0.000000  
;      1203
1203             426.050000 6.350000   0.000000   0.000000   0.000000  
;      1204
1204             223.520000 6.900000   0.000000   0.000000   0.000000  
;      1205
1205             224.820000 6.250000   0.000000   0.000000   0.000000  
;      1206
1206             225.920000 7.420000   0.000000   0.000000   0.000000  
;      1207
1207             232.190000 6.610000   0.000000   0.000000   0.000000  
;      1208
1208             555.250000 4.950000   0.000000   0.000000   0.000000  
;      1209
1209             588.310000 9.280000   0.000000   0.000000   0.000000  
;       121
121              209.790000 15.110000  0.000000   0.000000   0.000000  
;      1210
1210             182.730000 13.370000  0.000000   0.000000   0.000000  
;      1211
1211             450.400000 8.000000   0.000000   0.000000   0.000000  
;      1212
1212             555.550000 2.850000   0.000000   0.000000   0.000000  
;      1213
1213             292.590000 10.420000  0.000000   0.000000   0.000000  
;      1214
1214             289.880000 7.440000   0.000000   0.000000   0.000000  
;      1215
1215             279.880000 6.500000   0.000000   0.000000   0.000000  
;      1216
1216             269.680000 6.320000   0.000000   0.000000   0.000000  
;      1217
1217             261.370000 9.230000   0.000000   0.000000   0.000000  
;      1218
1218             593.220000 8.410000   0.000000   0.000000   0.000000  
;      1219
1219             348.170000 8.350000   0.000000   0.000000   0.000000  
;       122
122              246.010000 6.990000   0.000000   0.000000   0.000000  
;      1220
1220             203.740000 6.260000   0.000000   0.000000   0.000000  
;      1221
1221             204.610000 5.390000   0.000000   0.000000   0.000000  
;      1222
1222             206.260000 6.120000   0.000000   0.000000   0.000000  
;      1223
1223             703.940000 9.620000   0.000000   0.000000   0.000000  
;      1224
1224             209.360000 6.070000   0.000000   0.000000   0.000000  
;      1225
1225             363.170000 8.920000   0.000000   0.000000   0.000000  
;      1226
1226             212.480000 6.000000   0.000000   0.000000   0.000000  
;      1227
1227             308.720000 7.130000   0.000000   0.000000   0.000000  
;      1228
1228             214.430000 5.990000   0.000000   0.000000   0.000000  
;      1229
1229             219.830000 6.670000   0.000000   0.000000   0.000000  
;       123
123              286.160000 15.640000  0.000000   0.000000   0.000000  
;      1230
1230             221.290000 8.000000   0.000000   0.000000   0.000000  
;      1231
1231             587.630000 9.490000   0.000000   0.000000   0.000000  
;      1232
1232             641.980000 8.020000   0.000000   0.000000   0.000000  
;      1233
1233             222.800000 7.500000   0.000000   0.000000   0.000000  
;      1234
1234             452.290000 7.410000   0.000000   0.000000   0.000000  
;      1235
1235             382.650000 6.310000   0.000000   0.000000   0.000000  
;      1236
1236             468.110000 7.090000   0.000000   0.000000   0.000000  
;      1237
1237             626.700000 7.610000   0.000000   0.000000   0.000000  
;      1238
1238             467.990000 7.110000   0.000000   0.000000   0.000000  
;      1239
1239             299.620000 6.340000   0.000000   0.000000   0.000000  
;       124
124              216.530000 7.050000   0.000000   0.000000   0.000000  
;      1240
1240             411.830000 10.070000  0.000000   0.000000   0.000000  
;      1241
1241             463.850000 7.290000   0.000000   0.000000   0.000000  
;      1242
1242             227.020000 6.280000   0.000000   0.000000   0.000000  
;      1243
1243             203.350000 5.870000   0.000000   0.000000   0.000000  
; 1244
1244             189.370000 6.120000   0.000000   0.000000   0.000000  
;      1245
1245             501.830000 8.450000   0.000000   0.000000   0.000000  
;      1246
1246             188.520000 7.380000   0.000000   0.000000   0.000000  
;      1247
1247             692.260000 8.700000   0.000000   0.000000   0.000000  
;      1248
1248             187.100000 7.030000   0.000000   0.000000   0.000000  
;      1249
1249             576.260000 8.520000   0.000000   0.000000   0.000000  
;       125
125              211.590000 11.990000  0.000000   0.000000   0.000000  
;      1250
1250             188.790000 6.990000   0.000000   0.000000   0.000000  
;      1251
1251             547.150000 8.410000   0.000000   0.000000   0.000000  
;      1252
1252             585.170000 9.020000   0.000000   0.000000   0.000000  
; 1253
1253             293.390000 9.010000   0.000000   0.000000   0.000000  
;      1254
1254             577.220000 10.230000  0.000000   0.000000   0.000000  
;      1255
1255             225.140000 5.980000   0.000000   0.000000   0.000000  
;      1256
1256             229.880000 7.100000   0.000000   0.000000   0.000000  
;      1257
1257             311.640000 10.860000  0.000000   0.000000   0.000000  
;      1258
1258             709.530000 8.600000   0.000000   0.000000   0.000000  
;       126
126              254.000000 8.400000   0.000000   0.000000   0.000000  
;      1260
1260             525.020000 8.300000   0.000000   0.000000   0.000000  
;      1261
1261             222.400000 6.000000   0.000000   0.000000   0.000000  
;      1262
1262             682.400000 8.600000   0.000000   0.000000   0.000000  
; 1263
1263             284.620000 11.580000  0.000000   0.000000   0.000000  
;      1264
1264             275.250000 6.550000   0.000000   0.000000   0.000000  
;      1265
1265             266.700000 6.530000   0.000000   0.000000   0.000000  
;      1266
1266             262.090000 7.210000   0.000000   0.000000   0.000000  
;      1267
1267             500.150000 17.250000  0.000000   0.000000   0.000000  
;      1268
1268             694.160000 8.500000   0.000000   0.000000   0.000000  
;      1269
1269             202.780000 5.920000   0.000000   0.000000   0.000000  
;       127
127              213.090000 9.140000   0.000000   0.000000   0.000000  
;      1270
1270             205.690000 5.780000   0.000000   0.000000   0.000000  
;      1271
1271             571.180000 9.680000   0.000000   0.000000   0.000000  
;      1272
1272             210.360000 6.000000   0.000000   0.000000   0.000000  
;      1273
1273             215.980000 5.880000   0.000000   0.000000   0.000000  
;      1274
1274             390.630000 10.630000  0.000000   0.000000   0.000000  
;      1275
1275             220.420000 6.060000   0.000000   0.000000   0.000000  
;      1276
1276             181.470000 13.030000  0.000000   0.000000   0.000000  
;      1277
1277             189.300000 8.600000   0.000000   0.000000   0.000000  
;      1278
1278             713.750000 8.500000   0.000000   0.000000   0.000000  
;      1279
1279             189.140000 8.280000   0.000000   0.000000   0.000000  
;       128
128              218.950000 5.950000   0.000000   0.000000   0.000000  
;      1280
1280             188.160000 8.180000   0.000000   0.000000   0.000000  
;      1281
1281             186.850000 11.040000  0.000000   0.000000   0.000000  
;      1282
1282             187.900000 8.620000   0.000000   0.000000   0.000000  
;      1283
1283             635.590000 9.410000   0.000000   0.000000   0.000000  
;      1284
1284             551.670000 8.530000   0.000000   0.000000   0.000000  
;      1285
1285             226.300000 6.290000   0.000000   0.000000   0.000000  
;      1286
1286             320.220000 5.380000   0.000000   0.000000   0.000000  
;      1287
1287             298.180000 5.740000   0.000000   0.000000   0.000000  
;      1288
1288             664.650000 8.510000   0.000000   0.000000   0.000000  
;      1289
1289             490.990000 9.910000   0.000000   0.000000   0.000000  
;       129
129              214.860000 7.470000   0.000000   0.000000   0.000000  
;      1290
1290             561.270000 8.930000   0.000000   0.000000   0.000000  
;      1291
1291             228.970000 7.070000   0.000000   0.000000   0.000000  
;      1292
1292             231.920000 7.150000   0.000000   0.000000   0.000000  
;      1293
1293             403.850000 8.850000   0.000000   0.000000   0.000000  
;      1294
1294             620.650000 7.600000   0.000000   0.000000   0.000000  
;      1295
1295             295.880000 6.120000   0.000000   0.000000   0.000000  
;      1296
1296             525.150000 7.190000   0.000000   0.000000   0.000000  
;      1297
1297             189.550000 8.350000   0.000000   0.000000   0.000000  
;      1298
1298             522.100000 15.130000  0.000000   0.000000   0.000000  
;      1299
1299             180.950000 13.250000  0.000000   0.000000   0.000000  
;        13
13               224.360000 11.040000  0.000000   0.000000   0.000000  
;       130
130              234.030000 7.400000   0.000000   0.000000   0.000000  
;      1300
1300             186.030000 7.270000   0.000000   0.000000   0.000000  
;      1301
1301             309.880000 8.380000   0.000000   0.000000   0.000000  
;      1302
1302             444.130000 9.870000   0.000000   0.000000   0.000000  
;      1304
1304             268.890000 6.390000   0.000000   0.000000   0.000000  
;      1305
1305             278.830000 6.320000   0.000000   0.000000   0.000000  
;      1306
1306             221.190000 5.990000   0.000000   0.000000   0.000000  
;      1307