[TITLE]
;;Project Title/Notes

[OPTIONS]
;;Option             Value
FLOW_UNITS           GPM
INFILTRATION         HORTON
FLOW_ROUTING         DYNWAVE
LINK_OFFSETS         DEPTH
MIN_SLOPE            0
ALLOW_PONDING        NO
SKIP_STEADY_STATE    NO

START_DATE           01/01/2002
START_TIME           00:00:00
REPORT_START_DATE    01/01/2002
REPORT_START_TIME    00:00:00
END_DATE             01/01/2002
END_TIME             12:00:00
SWEEP_START          01/01
SWEEP_END            12/31
DRY_DAYS             5.000000
REPORT_STEP          00:05:00
WET_STEP             01:00:00
DRY_STEP             23:00:00
ROUTING_STEP         0:05:00 

INERTIAL_DAMPING     NONE
NORMAL_FLOW_LIMITED  BOTH
FORCE_MAIN_EQUATION  H-W
VARIABLE_STEP        0.75
LENGTHENING_STEP     0
MIN_SURFAREA         12.557
MAX_TRIALS           8
HEAD_TOLERANCE       0.005
SYS_FLOW_TOL         5
LAT_FLOW_TOL         5
MINIMUM_STEP         0.5
THREADS              1

[EVAPORATION]
;;Data Source    Parameters
;;-------------- ----------------
CONSTANT         0.0
DRY_ONLY         NO

[JUNCTIONS]
;;Name           Elevation  MaxDepth   InitDepth  SurDepth   Aponded   
;;-------------- ---------- ---------- ---------- ---------- ----------
; Line Plugged btwn here and MH59C-307
CE_MH59C-307     972.370000 7.630000   0.000000   0.000000   0.000000  
CO116D-401       1006.500000 6.600000   0.000000   0.000000   0.000000  
CO116D-402       993.060000 8.140000   0.000000   0.000000   0.000000  
CO124A-201       922.610000 7.390000   0.000000   0.000000   0.000000  
CO124A-202       921.600000 7.000000   0.000000   0.000000   0.000000  
CO124A-401       928.200000 6.700000   0.000000   0.000000   0.000000  
CO124A-402       929.830000 6.670000   0.000000   0.000000   0.000000  
CO124A-403       932.560000 7.940000   0.000000   0.000000   0.000000  
CO124B-101       929.820000 6.990000   0.000000   0.000000   0.000000  
CO124B-301       939.200000 6.700000   0.000000   0.000000   0.000000  
CO124C-101       950.450000 6.090000   0.000000   0.000000   0.000000  
CO124C-102       943.080000 12.760000  0.000000   0.000000   0.000000  
CO124C-103       949.400000 6.010000   0.000000   0.000000   0.000000  
CO124C-104       956.370000 5.880000   0.000000   0.000000   0.000000  
CO124D-101       962.860000 7.040000   0.000000   0.000000   0.000000  
CO124D-102       960.510000 7.250000   0.000000   0.000000   0.000000  
CO124D-301       968.180000 6.310000   0.000000   0.000000   0.000000  
CO124D-302       964.690000 6.730000   0.000000   0.000000   0.000000  
CO124D-303       958.880000 10.230000  0.000000   0.000000   0.000000  
CO124D-401       964.500000 7.080000   0.000000   0.000000   0.000000  
CO124D-402       964.670000 6.180000   0.000000   0.000000   0.000000  
CO125C-201       988.640000 7.960000   0.000000   0.000000   0.000000  
CO125D-101       995.570000 8.430000   0.000000   0.000000   0.000000  
CO125D-102       996.250000 6.450000   0.000000   0.000000   0.000000  
CO125D-103       996.290000 7.710000   0.000000   0.000000   0.000000  
CO125D-301       998.350000 6.850000   0.000000   0.000000   0.000000  
CO125D-302       997.440000 7.560000   0.000000   0.000000   0.000000  
CO126B-201       1020.000000 6.200000   0.000000   0.000000   0.000000  
CO126B-301       1064.450000 10.550000  0.000000   0.000000   0.000000  
CO134A-201       971.050000 11.750000  0.000000   0.000000   0.000000  
CO134A-301       993.920000 11.680000  0.000000   0.000000   0.000000  
CO134B-101       974.160000 7.540000   0.000000   0.000000   0.000000  
CO134B-201       974.900000 7.000000   0.000000   0.000000   0.000000  
CO134B-301       1003.100000 10.900000  0.000000   0.000000   0.000000  
CO135A-101       989.720000 7.880000   0.000000   0.000000   0.000000  
CO135A-102       988.840000 6.860000   0.000000   0.000000   0.000000  
CO135A-201       994.700000 7.400000   0.000000   0.000000   0.000000  
CO135A-202       1005.610000 6.340000   0.000000   0.000000   0.000000  
CO135A-301       998.600000 7.000000   0.000000   0.000000   0.000000  
CO135A-401       1001.730000 7.100000   0.000000   0.000000   0.000000  
CO135C-201       1016.470000 6.000000   0.000000   0.000000   0.000000  
CO135D-101       1031.480000 5.520000   0.000000   0.000000   0.000000  
CO135D-102       1031.760000 6.340000   0.000000   0.000000   0.000000  
CO135D-103       1032.390000 6.280000   0.000000   0.000000   0.000000  
CO135D-301       1025.840000 7.150000   0.000000   0.000000   0.000000  
CO135D-302       1025.960000 7.000000   0.000000   0.000000   0.000000  
CO144A-201       971.470000 6.630000   0.000000   1000.000000 0.000000  
CO144A-202       974.020000 6.020000   0.000000   1000.000000 0.000000  
CO144A-401       983.860000 7.940000   0.000000   0.000000   0.000000  
CO144B-201       988.000000 7.940000   0.000000   0.000000   0.000000  
CO144B-301       981.760000 6.140000   0.000000   1000.000000 0.000000  
CO144B-302       987.140000 7.130000   0.000000   1000.000000 0.000000  
CO144B-401       1004.100000 7.310000   0.000000   0.000000   0.000000  
CO144B-402       992.980000 8.520000   0.000000   1000.000000 0.000000  
CO144C-201       1000.900000 7.830000   0.000000   0.000000   0.000000  
CO144C-202       1006.300000 8.230000   0.000000   0.000000   0.000000  
CO144C-203       994.430000 8.000000   0.000000   0.000000   0.000000  
CO144C-204       994.180000 8.130000   0.000000   0.000000   0.000000  
CO144D-201       998.820000 6.080000   0.000000   0.000000   0.000000  
CO144D-401       1003.410000 7.990000   0.000000   0.000000   0.000000  
CO145A-201       1023.300000 7.030000   0.000000   0.000000   0.000000  
CO145A-202       1023.480000 7.060000   0.000000   0.000000   0.000000  
CO145A-203       1020.300000 7.100000   0.000000   0.000000   0.000000  
CO145A-204       1025.640000 6.860000   0.000000   0.000000   0.000000  
CO145B-101       1029.700000 6.940000   0.000000   0.000000   0.000000  
CO145B-102       1029.300000 8.130000   0.000000   0.000000   0.000000  
CO145B-103       1028.730000 8.600000   0.000000   0.000000   0.000000  
CO145B-104       1027.790000 7.010000   0.000000   0.000000   0.000000  
CO145B-301       1031.690000 5.780000   0.000000   0.000000   0.000000  
CO145B-401       1053.500000 4.500000   0.000000   0.000000   0.000000  
CO145C-201       1025.670000 5.380000   0.000000   0.000000   0.000000  
CO145D-301       1027.450000 6.950000   0.000000   0.000000   0.000000  
CO154A-401       1069.530000 7.870000   0.000000   0.000000   0.000000  
CO154B-301       1050.090000 6.540000   0.000000   0.000000   0.000000  
CO154B-302       1046.950000 8.750000   0.000000   0.000000   0.000000  
CO23B-402        1089.430000 7.980000   0.000000   0.000000   0.000000  
CO23B-403        1087.990000 8.470000   0.000000   0.000000   0.000000  
CO23C-301        1096.100000 7.730000   0.000000   0.000000   0.000000  
CO23D-401        1075.690000 10.310000  0.000000   0.000000   0.000000  
CO23D-402        1074.030000 13.220000  0.000000   0.000000   0.000000  
CO24C-101        1078.870000 11.350000  0.000000   0.000000   0.000000  
CO43D-301        1028.950000 8.180000   0.000000   0.000000   0.000000  
CO55B-301        987.710000 6.190000   0.000000   0.000000   0.000000  
CO55B-302        990.100000 7.000000   0.000000   0.000000   0.000000  
CO55B-401        989.240000 6.460000   0.000000   0.000000   0.000000  
CO55B-402        988.170000 10.830000  0.000000   0.000000   0.000000  
CO55C-301        987.340000 6.300000   0.000000   0.000000   0.000000  
CO55C-302        987.480000 5.200000   0.000000   0.000000   0.000000  
CO55C-401        986.290000 5.510000   0.000000   0.000000   0.000000  
CO55C-402        984.690000 8.350000   0.000000   0.000000   0.000000  
CO55C-403        985.920000 7.880000   0.000000   0.000000   0.000000  
CO55D-201        984.120000 6.380000   0.000000   0.000000   0.000000  
CO55D-202        984.410000 6.290000   0.000000   0.000000   0.000000  
CO55D-203        985.440000 6.160000   0.000000   0.000000   0.000000  
CO55D-204        986.890000 5.310000   0.000000   0.000000   0.000000  
CO55D-205        985.200000 7.000000   0.000000   0.000000   0.000000  
CO55D-401        985.700000 7.000000   0.000000   0.000000   0.000000  
CO56A-401        998.040000 7.460000   0.000000   0.000000   0.000000  
CO56A-402        996.990000 7.510000   0.000000   0.000000   0.000000  
CO56C-101        984.330000 12.770000  0.000000   0.000000   0.000000  
CO57C-401        981.920000 6.920000   0.000000   0.000000   0.000000  
CO57C-402        973.830000 11.450000  0.000000   0.000000   0.000000  
CO57D-301        974.550000 6.850000   0.000000   0.000000   0.000000  
CO59D-201        976.760000 8.340000   0.000000   0.000000   0.000000  
CO59D-401        974.890000 5.410000   0.000000   0.000000   0.000000  
CO59D-402        977.230000 4.940000   0.000000   0.000000   0.000000  
CO59D-403        977.740000 4.970000   0.000000   0.000000   0.000000  
CO59D-404        977.910000 5.440000   0.000000   0.000000   0.000000  
CO64C-101        974.400000 6.700000   0.000000   0.000000   0.000000  
CO64C-102        979.280000 7.220000   0.000000   0.000000   0.000000  
CO64C-201        973.540000 9.960000   0.000000   0.000000   0.000000  
CO64C-202        974.740000 8.560000   0.000000   0.000000   0.000000  
CO65D-201        968.150000 7.520000   0.000000   0.000000   0.000000  
CO65D-401        964.530000 10.590000  0.000000   0.000000   0.000000  
CO66A-101        984.220000 5.950000   0.000000   0.000000   0.000000  
CO66A-102        984.550000 9.620000   0.000000   0.000000   0.000000  
CO66A-201        981.580000 2.940000   0.000000   0.000000   0.000000  
CO66A-202        981.150000 7.080000   0.000000   0.000000   0.000000  
CO66A-203        983.320000 6.730000   0.000000   0.000000   0.000000  
CO66A-204        984.230000 6.190000   0.000000   0.000000   0.000000  
CO66A-301        980.000000 7.690000   0.000000   0.000000   0.000000  
CO66A-401        981.090000 7.040000   0.000000   0.000000   0.000000  
CO66A-402        980.620000 7.020000   0.000000   0.000000   0.000000  
CO66A-403        979.830000 6.200000   0.000000   0.000000   0.000000  
CO66A-404        982.020000 7.040000   0.000000   0.000000   0.000000  
CO66C-101        969.360000 8.750000   0.000000   0.000000   0.000000  
CO66C-102        971.480000 6.840000   0.000000   0.000000   0.000000  
CO66C-301        961.610000 11.390000  0.000000   0.000000   0.000000  
CO67A-401        972.690000 6.680000   0.000000   0.000000   0.000000  
CO67C-201        965.510000 10.320000  0.000000   0.000000   0.000000  
CO67C-202        968.040000 7.690000   0.000000   0.000000   0.000000  
CO68A-201        976.280000 9.330000   0.000000   0.000000   0.000000  
CO68A-202        977.280000 8.330000   0.000000   0.000000   0.000000  
CO68A-203        978.280000 7.330000   0.000000   0.000000   0.000000  
CO68A-204        979.030000 6.580000   0.000000   0.000000   0.000000  
CO68A-205        979.780000 5.830000   0.000000   0.000000   0.000000  
CO68A-213        982.560000 3.050000   0.000000   0.000000   0.000000  
CO68A-214        983.320000 2.290000   0.000000   0.000000   0.000000  
CO68A-215        983.950000 1.660000   0.000000   0.000000   0.000000  
CO69A-100        975.090000 3.540000   0.000000   0.000000   0.000000  
CO69A-101        976.110000 2.290000   0.000000   0.000000   0.000000  
CO69A-301        971.760000 5.240000   0.000000   0.000000   0.000000  
CO69A-302        972.070000 4.930000   0.000000   0.000000   0.000000  
CO69A-401        968.300000 3.950000   0.000000   0.000000   0.000000  
CO69A-402        970.980000 4.520000   0.000000   0.000000   0.000000  
CO69A-403        969.570000 4.430000   0.000000   0.000000   0.000000  
CO69A-404        970.790000 4.210000   0.000000   0.000000   0.000000  
CO69C-101        969.220000 6.780000   0.000000   0.000000   0.000000  
CO74B-101        961.210000 6.890000   0.000000   0.000000   0.000000  
CO74B-102        961.400000 7.880000   0.000000   0.000000   0.000000  
CO74B-103        958.930000 7.610000   0.000000   0.000000   0.000000  
CO74B-104        962.660000 7.470000   0.000000   0.000000   0.000000  
CO74B-105        965.040000 7.320000   0.000000   0.000000   0.000000  
CO74B-106        963.290000 6.890000   0.000000   0.000000   0.000000  
CO74B-107        964.290000 6.890000   0.000000   0.000000   0.000000  
CO74B-201        953.300000 8.130000   0.000000   0.000000   0.000000  
CO74B-301        953.380000 6.010000   0.000000   0.000000   0.000000  
CO74B-302        957.190000 7.790000   0.000000   0.000000   0.000000  
CO74B-303        954.860000 7.750000   0.000000   0.000000   0.000000  
CO74B-304        958.370000 7.000000   0.000000   0.000000   0.000000  
CO74B-305        958.040000 6.830000   0.000000   0.000000   0.000000  
CO74B-306        958.270000 7.820000   0.000000   0.000000   0.000000  
CO74B-307        959.910000 7.820000   0.000000   0.000000   0.000000  
CO74B-401        945.560000 10.580000  0.000000   0.000000   0.000000  
CO74B-402        953.350000 6.880000   0.000000   0.000000   0.000000  
CO74B-403        948.460000 7.620000   0.000000   0.000000   0.000000  
CO74B-404        948.920000 7.120000   0.000000   0.000000   0.000000  
CO74B-405        948.270000 7.250000   0.000000   0.000000   0.000000  
CO74D-101        951.260000 5.630000   0.000000   0.000000   0.000000  
CO74D-102        948.430000 6.240000   0.000000   0.000000   0.000000  
CO74D-103        949.760000 5.190000   0.000000   0.000000   0.000000  
CO74D-104        950.520000 5.640000   0.000000   0.000000   0.000000  
CO74D-105        952.770000 7.290000   0.000000   0.000000   0.000000  
CO74D-106        952.160000 7.620000   0.000000   0.000000   0.000000  
CO74D-201        942.320000 8.070000   0.000000   0.000000   0.000000  
CO74D-202        943.410000 8.360000   0.000000   0.000000   0.000000  
CO74D-203        947.980000 7.140000   0.000000   0.000000   0.000000  
CO74D-204        946.410000 7.320000   0.000000   0.000000   0.000000  
CO76A-101        961.060000 7.810000   0.000000   0.000000   0.000000  
CO76A-102        962.420000 8.810000   0.000000   0.000000   0.000000  
CO76A-201        964.760000 7.540000   0.000000   0.000000   0.000000  
CO76A-202        967.410000 7.990000   0.000000   0.000000   0.000000  
CO76A-301        955.830000 8.070000   0.000000   0.000000   0.000000  
CO76A-302        956.350000 7.950000   0.000000   0.000000   0.000000  
CO76A-401        956.400000 8.400000   0.000000   0.000000   0.000000  
CO76A-402        960.960000 6.840000   0.000000   0.000000   0.000000  
CO76B-101        965.310000 7.580000   0.000000   0.000000   0.000000  
CO76B-102        963.860000 7.080000   0.000000   0.000000   0.000000  
CO76B-103        961.210000 7.450000   0.000000   0.000000   0.000000  
CO76B-301        953.960000 7.240000   0.000000   0.000000   0.000000  
CO76B-302        955.740000 5.370000   0.000000   0.000000   0.000000  
CO76B-303        957.830000 6.390000   0.000000   0.000000   0.000000  
CO76B-304        955.350000 5.370000   0.000000   0.000000   0.000000  
CO76B-305        955.580000 4.970000   0.000000   0.000000   0.000000  
CO76B-401        956.290000 7.000000   0.000000   0.000000   0.000000  
CO76B-402        956.350000 6.800000   0.000000   0.000000   0.000000  
CO76B-403        957.760000 6.900000   0.000000   0.000000   0.000000  
CO76B-404        956.910000 7.650000   0.000000   0.000000   0.000000  
CO76B-405        957.660000 6.520000   0.000000   0.000000   0.000000  
CO76C-101        952.260000 8.730000   0.000000   0.000000   0.000000  
CO76D-101        950.590000 5.010000   0.000000   0.000000   0.000000  
CO76D-102        950.240000 5.360000   0.000000   0.000000   0.000000  
CO76D-201        952.500000 7.620000   0.000000   0.000000   0.000000  
CO76D-301        945.410000 6.990000   0.000000   0.000000   0.000000  
CO76D-401        947.570000 7.910000   0.000000   0.000000   0.000000  
CO76D-402        947.850000 7.290000   0.000000   0.000000   0.000000  
CO77C-401        947.540000 2.460000   0.000000   0.000000   0.000000  
CO77C-402        947.770000 3.230000   0.000000   0.000000   0.000000  
CO84B-201        926.960000 11.700000  0.000000   0.000000   0.000000  
CO85A-101        931.970000 6.840000   0.000000   0.000000   0.000000  
CO85A-102        930.610000 7.890000   0.000000   0.000000   0.000000  
CO85A-103        929.250000 8.760000   0.000000   0.000000   0.000000  
CO85A-104        927.950000 8.730000   0.000000   0.000000   0.000000  
CO85A-201        933.330000 7.170000   0.000000   0.000000   0.000000  
CO85A-202        934.690000 8.090000   0.000000   0.000000   0.000000  
CO85A-203        936.050000 8.270000   0.000000   0.000000   0.000000  
CO85B-101        937.410000 8.590000   0.000000   0.000000   0.000000  
CO85B-102        939.420000 8.260000   0.000000   0.000000   0.000000  
CO85B-103        941.280000 8.920000   0.000000   0.000000   0.000000  
CO85B-104        940.130000 10.200000  0.000000   0.000000   0.000000  
CO85B-201        938.770000 7.830000   0.000000   0.000000   0.000000  
CO85B-202        937.960000 6.430000   0.000000   0.000000   0.000000  
CO85B-203        936.790000 7.760000   0.000000   0.000000   0.000000  
CO85B-204        935.790000 8.870000   0.000000   0.000000   0.000000  
CO86A-101        937.210000 6.220000   0.000000   0.000000   0.000000  
CO86A-201        940.530000 6.820000   0.000000   0.000000   0.000000  
CO87A-101        942.890000 0.650000   0.000000   0.000000   0.000000  
CO87A-102        942.900000 0.640000   0.000000   0.000000   0.000000  
CO87A-103        940.980000 2.560000   0.000000   0.000000   0.000000  
CO87A-104        933.970000 9.570000   0.000000   0.000000   0.000000  
CO87A-105        934.960000 8.580000   0.000000   0.000000   0.000000  
CO87A-106        935.850000 7.690000   0.000000   0.000000   0.000000  
CO87A-107        936.950000 6.590000   0.000000   0.000000   0.000000  
CO87A-108        942.940000 0.600000   0.000000   0.000000   0.000000  
CO87A-301        929.540000 14.000000  0.000000   0.000000   0.000000  
CO87A-302        933.310000 10.230000  0.000000   0.000000   0.000000  
CO87A-303        940.510000 3.030000   0.000000   0.000000   0.000000  
CO87A-304        932.830000 10.710000  0.000000   0.000000   0.000000  
CO87A-305        933.930000 9.610000   0.000000   0.000000   0.000000  
CO87A-306        934.920000 8.620000   0.000000   0.000000   0.000000  
CO87A-307        935.810000 7.730000   0.000000   0.000000   0.000000  
CO87A-308        936.930000 6.610000   0.000000   0.000000   0.000000  
CO87A-309        937.900000 5.640000   0.000000   0.000000   0.000000  
CO87A-310        940.140000 3.400000   0.000000   0.000000   0.000000  
CO88A-401        947.650000 4.750000   0.000000   0.000000   0.000000  
CO93B-201        896.000000 6.280000   0.000000   1000.000000 0.000000  
CO93B-202        896.000000 6.280000   0.000000   1000.000000 0.000000  
CO94A-101        896.000000 4.780000   0.000000   1000.000000 0.000000  
CO94A-102        896.000000 4.780000   0.000000   1000.000000 0.000000  
CO94A-103        896.000000 5.580000   0.000000   1000.000000 0.000000  
CO94A-104        896.000000 5.580000   0.000000   1000.000000 0.000000  
CO96B-301        906.400000 3.300000   0.000000   0.000000   0.000000  
CO96B-302        903.400000 4.000000   0.000000   0.000000   0.000000  
; Rubbermaid
LFS04C           890.000000 20.500000  0.000000   1000.000000 0.000000  
; Cantamia
LFS13C           996.330000 3.670000   0.000000   1000.000000 0.000000  
; Lost
LS116-1C         955.400000 12.100000  0.000000   1000.000000 0.000000  
; Ricardo
LS134-1C         956.750000 4.250000   0.000000   1000.000000 0.000000  
LS134-2C         961.000000 5.000000   0.000000   1000.000000 0.000000  
; Lum
LS134-3C         969.400000 5.100000   0.000000   1000.000000 0.000000  
; Rainbow Valley
LS144-2C         985.000000 18.000000  0.000000   1000.000000 0.000000  
; Perryville
LS44-1C          1009.950000 15.600000  0.000000   1000.000000 0.000000  
; Palm Valley Crossing
LS58-1C          982.010000 5.510000   0.000000   1000.000000 0.000000  
; Wells Fargo
LS59-1C          976.720000 5.780000   0.000000   1000.000000 0.000000  
LS59-2C          980.780000 4.220000   0.000000   1000.000000 0.000000  
; CE Created
LS83-1C          896.000000 10.550000  0.000000   1000.000000 0.000000  
LS86-1C          892.620000 22.880000  0.000000   1000.000000 0.000000  
; PW Admin
LS96-1CCC        906.000000 3.700000   0.000000   1000.000000 0.000000  
; Dog Park
LS96-2C          0.000000   0.000000   0.000000   1000.000000 0.000000  
MH116C-201       954.150000 13.850000  0.000000   0.000000   0.000000  
MH116C-202       956.140000 13.360000  0.000000   0.000000   0.000000  
MH116C-203       956.900000 15.100000  0.000000   0.000000   0.000000  
MH116C-204       958.000000 17.000000  0.000000   0.000000   0.000000  
MH116D-101       966.330000 14.170000  0.000000   0.000000   0.000000  
MH116D-102       966.710000 10.790000  0.000000   0.000000   0.000000  
MH116D-103       967.610000 12.090000  0.000000   0.000000   0.000000  
MH116D-104       968.480000 16.220000  0.000000   0.000000   0.000000  
MH116D-201       973.020000 15.380000  0.000000   0.000000   0.000000  
MH116D-202       973.810000 12.890000  0.000000   0.000000   0.000000  
MH116D-203       974.360000 12.640000  0.000000   0.000000   0.000000  
MH116D-204       975.050000 13.950000  0.000000   0.000000   0.000000  
MH116D-205       975.650000 13.510000  0.000000   0.000000   0.000000  
MH116D-206       984.940000 6.560000   0.000000   0.000000   0.000000  
MH116D-207       987.180000 6.020000   0.000000   0.000000   0.000000  
MH116D-208       976.450000 13.650000  0.000000   0.000000   0.000000  
MH116D-209       977.880000 11.820000  0.000000   0.000000   0.000000  
MH116D-301       969.420000 18.580000  0.000000   0.000000   0.000000  
MH116D-302       970.060000 21.940000  0.000000   0.000000   0.000000  
MH116D-303       970.270000 21.130000  0.000000   0.000000   0.000000  
MH116D-304       979.200000 15.000000  0.000000   0.000000   0.000000  
MH116D-305       980.990000 15.410000  0.000000   0.000000   0.000000  
MH116D-306       982.000000 14.300000  0.000000   0.000000   0.000000  
MH116D-307       982.570000 16.320000  0.000000   0.000000   0.000000  
MH116D-308       979.660000 16.840000  0.000000   0.000000   0.000000  
MH116D-309       989.350000 12.230000  0.000000   0.000000   0.000000  
MH116D-310       990.000000 11.360000  0.000000   0.000000   0.000000  
MH116D-311       996.030000 6.130000   0.000000   0.000000   0.000000  
MH116D-312       971.470000 20.630000  0.000000   0.000000   0.000000  
MH116D-401       971.900000 20.100000  0.000000   0.000000   0.000000  
MH116D-402       989.100000 7.000000   0.000000   0.000000   0.000000  
MH116D-403       992.980000 10.420000  0.000000   0.000000   0.000000  
MH116D-404       994.910000 13.390000  0.000000   0.000000   0.000000  
MH116D-405       995.420000 9.980000   0.000000   0.000000   0.000000  
MH116D-406       997.720000 7.580000   0.000000   0.000000   0.000000  
MH116D-407       1004.720000 5.780000   0.000000   0.000000   0.000000  
MH116D-408       1016.280000 5.520000   0.000000   0.000000   0.000000  
MH116D-409       990.290000 11.010000  0.000000   0.000000   0.000000  
MH116D-410       1003.130000 6.920000   0.000000   0.000000   0.000000  
MH116D-411       993.030000 8.670000   0.000000   0.000000   0.000000  
MH116D-412       998.930000 11.460000  0.000000   0.000000   0.000000  
MH116D-413       1005.620000 9.920000   0.000000   0.000000   0.000000  
MH124A-101       892.500000 17.500000  0.000000   0.000000   0.000000  
MH124A-102       897.870000 16.730000  0.000000   0.000000   0.000000  
MH124A-103       899.110000 14.490000  0.000000   0.000000   0.000000  
MH124A-104       899.450000 13.950000  0.000000   0.000000   0.000000  
MH124A-105       899.750000 15.450000  0.000000   0.000000   0.000000  
MH124A-106       909.310000 7.090000   0.000000   0.000000   0.000000  
MH124A-107       911.450000 7.150000   0.000000   0.000000   0.000000  
MH124A-108       913.120000 7.280000   0.000000   0.000000   0.000000  
MH124A-109       913.850000 7.150000   0.000000   0.000000   0.000000  
MH124A-110       917.430000 7.170000   0.000000   0.000000   0.000000  
MH124A-111       919.630000 7.270000   0.000000   0.000000   0.000000  
MH124A-112       920.400000 7.300000   0.000000   0.000000   0.000000  
MH124A-113       909.220000 8.580000   0.000000   0.000000   0.000000  
MH124A-114       915.140000 7.260000   0.000000   0.000000   0.000000  
MH124A-115       918.800000 7.800000   0.000000   0.000000   0.000000  
MH124A-116       900.660000 13.140000  0.000000   0.000000   0.000000  
MH124A-117       902.580000 6.820000   0.000000   0.000000   0.000000  
MH124A-118       900.540000 14.160000  0.000000   0.000000   0.000000  
MH124A-119       901.090000 16.110000  0.000000   0.000000   0.000000  
MH124A-120       901.600000 16.700000  0.000000   0.000000   0.000000  
MH124A-121       901.960000 16.940000  0.000000   0.000000   0.000000  
MH124A-122       916.210000 7.090000   0.000000   0.000000   0.000000  
MH124A-123       903.750000 6.750000   0.000000   0.000000   0.000000  
MH124A-201       918.260000 7.440000   0.000000   0.000000   0.000000  
MH124A-202       918.850000 8.950000   0.000000   0.000000   0.000000  
MH124A-203       919.250000 9.850000   0.000000   0.000000   0.000000  
MH124A-204       919.860000 9.640000   0.000000   0.000000   0.000000  
MH124A-205       921.580000 8.020000   0.000000   0.000000   0.000000  
MH124A-206       922.260000 7.640000   0.000000   0.000000   0.000000  
MH124A-207       923.900000 7.000000   0.000000   0.000000   0.000000  
MH124A-208       902.530000 17.570000  0.000000   0.000000   0.000000  
MH124A-209       902.890000 18.510000  0.000000   0.000000   0.000000  
MH124A-210       903.260000 19.440000  0.000000   0.000000   0.000000  
MH124A-211       915.130000 13.670000  0.000000   0.000000   0.000000  
MH124A-212       915.720000 14.280000  0.000000   0.000000   0.000000  
MH124A-213       916.630000 13.680000  0.000000   0.000000   0.000000  
MH124A-214       918.740000 12.330000  0.000000   0.000000   0.000000  
MH124A-215       920.130000 11.390000  0.000000   0.000000   0.000000  
MH124A-216       922.680000 8.660000   0.000000   0.000000   0.000000  
MH124A-217       923.800000 8.290000   0.000000   0.000000   0.000000  
MH124A-218       913.320000 7.280000   0.000000   0.000000   0.000000  
MH124A-219       913.600000 7.100000   0.000000   0.000000   0.000000  
MH124A-220       914.100000 6.700000   0.000000   0.000000   0.000000  
MH124A-221       904.110000 18.990000  0.000000   0.000000   0.000000  
MH124A-222       904.410000 18.790000  0.000000   0.000000   0.000000  
MH124A-223       904.850000 18.750000  0.000000   0.000000   0.000000  
MH124A-224       905.830000 16.370000  0.000000   0.000000   0.000000  
MH124A-225       916.010000 6.790000   0.000000   0.000000   0.000000  
MH124A-226       922.210000 6.990000   0.000000   0.000000   0.000000  
MH124A-227       920.900000 7.400000   0.000000   0.000000   0.000000  
MH124A-228       921.410000 7.090000   0.000000   0.000000   0.000000  
MH124A-229       922.220000 6.780000   0.000000   0.000000   0.000000  
MH124A-230       923.520000 7.010000   0.000000   0.000000   0.000000  
MH124A-231       924.660000 6.600000   0.000000   0.000000   0.000000  
MH124A-232       927.370000 6.730000   0.000000   0.000000   0.000000  
MH124A-301       904.870000 11.130000  0.000000   0.000000   0.000000  
MH124A-302       907.190000 15.010000  0.000000   0.000000   0.000000  
MH124A-303       907.020000 17.980000  0.000000   0.000000   0.000000  
MH124A-304       908.030000 19.070000  0.000000   0.000000   0.000000  
MH124A-305       909.830000 18.770000  0.000000   0.000000   0.000000  
MH124A-306       919.570000 8.030000   0.000000   0.000000   0.000000  
MH124A-307       920.090000 8.010000   0.000000   0.000000   0.000000  
MH124A-308       920.530000 8.270000   0.000000   0.000000   0.000000  
MH124A-309       921.170000 7.870000   0.000000   0.000000   0.000000  
MH124A-310       921.800000 7.500000   0.000000   0.000000   0.000000  
MH124A-311       922.010000 6.990000   0.000000   0.000000   0.000000  
MH124A-401       923.370000 8.230000   0.000000   0.000000   0.000000  
MH124A-402       924.430000 6.870000   0.000000   0.000000   0.000000  
MH124A-403       924.640000 6.660000   0.000000   0.000000   0.000000  
MH124A-404       926.390000 7.610000   0.000000   0.000000   0.000000  
MH124A-405       928.140000 7.760000   0.000000   0.000000   0.000000  
MH124A-406       928.580000 7.920000   0.000000   0.000000   0.000000  
MH124A-407       929.060000 7.840000   0.000000   0.000000   0.000000  
MH124A-408       923.340000 7.060000   0.000000   0.000000   0.000000  
MH124A-409       924.410000 8.690000   0.000000   0.000000   0.000000  
MH124A-410       924.920000 7.980000   0.000000   0.000000   0.000000  
MH124A-411       927.030000 7.170000   0.000000   0.000000   0.000000  
MH124A-412       927.570000 6.930000   0.000000   0.000000   0.000000  
MH124A-413       925.540000 7.660000   0.000000   0.000000   0.000000  
MH124A-414       926.360000 7.240000   0.000000   0.000000   0.000000  
MH124A-415       928.130000 6.670000   0.000000   0.000000   0.000000  
MH124A-416       928.630000 6.570000   0.000000   0.000000   0.000000  
MH124A-417       929.110000 6.590000   0.000000   0.000000   0.000000  
MH124A-418       914.690000 11.110000  0.000000   0.000000   0.000000  
MH124A-419       916.360000 14.740000  0.000000   0.000000   0.000000  
MH124A-420       917.470000 10.330000  0.000000   0.000000   0.000000  