[TITLE]
;;Project Title/Notes

[OPTIONS]
;;Option             Value
FLOW_UNITS           LPS
INFILTRATION         HORTON
FLOW_ROUTING         DYNWAVE
LINK_OFFSETS         DEPTH
MIN_SLOPE            0
ALLOW_PONDING        NO
SKIP_STEADY_STATE    NO

IGNORE_RAINFALL      YES
IGNORE_SNOWMELT      YES
IGNORE_GROUNDWATER   YES
IGNORE_QUALITY       YES
START_DATE           01/01/2016
START_TIME           00:00:00
REPORT_START_DATE    01/01/2016
REPORT_START_TIME    00:00:00
END_DATE             01/01/2016
END_TIME             06:00:00
SWEEP_START          01/01
SWEEP_END            01/01
DRY_DAYS             5.000000
REPORT_STEP          00:00:10
WET_STEP             00:05:00
DRY_STEP             00:05:00
ROUTING_STEP         0:00:05 

INERTIAL_DAMPING     NONE
NORMAL_FLOW_LIMITED  BOTH
FORCE_MAIN_EQUATION  H-W
VARIABLE_STEP        0.75
LENGTHENING_STEP     1
MIN_SURFAREA         1.14
MAX_TRIALS           12
HEAD_TOLERANCE       0.000100
SYS_FLOW_TOL         5
LAT_FLOW_TOL         5
MINIMUM_STEP         0
THREADS              1

[EVAPORATION]
;;Data Source    Parameters
;;-------------- ----------------
CONSTANT         0.0
DRY_ONLY         NO

[JUNCTIONS]
;;Name           Elevation  MaxDepth   InitDepth  SurDepth   Aponded   
;;-------------- ---------- ---------- ---------- ---------- ----------
; New Junction
JCT-12           1.239667   4.247333   0.000000   0.000000   0.000000  
; MC104
MC104            -0.750000  6.649000   0.000000   0.000000   0.000000  
; MC105
MC105            0.000000   5.645000   0.000000   0.000000   0.000000  
; MC106
MC106            0.400000   5.418000   0.000000   0.000000   0.000000  
; MC107
MC107            1.250000   5.696000   0.000000   0.000000   0.000000  
; MC108
MC108            1.750000   5.481000   0.000000   0.000000   0.000000  
; MC109
MC109            2.350000   4.771000   0.000000   0.000000   0.000000  
; MC110
MC110            4.500000   4.539000   0.000000   0.000000   0.000000  
; MC111
MC111            5.150000   2.891000   0.000000   0.000000   0.000000  
; MC112
MC112            6.400000   3.306000   0.000000   0.000000   0.000000  
; MC113
MC113            9.562000   2.000000   0.000000   0.000000   0.000000  
; MC140
MC140            7.676000   2.000000   0.000000   0.000000   0.000000  
; MC400
MC400            2.200000   3.398000   0.000000   0.000000   0.000000  
; MC401
MC401            3.000000   2.659000   0.000000   0.000000   0.000000  
; MC402
MC402            3.250000   2.760000   0.000000   0.000000   0.000000  
; MC403
MC403            3.490000   2.358000   0.000000   0.000000   0.000000  
; MC404
MC404            4.450000   1.920000   0.000000   0.000000   0.000000  
; MC405
MC405            5.450000   1.789000   0.000000   0.000000   0.000000  
; MC406
MC406            8.400000   1.294000   0.000000   0.000000   0.000000  
; MC407
MC407            14.191000  2.000000   0.000000   0.000000   0.000000  
; MC410
MC410            7.986000   2.000000   0.000000   0.000000   0.000000  
; MC500
MC500            6.400000   1.615000   0.000000   0.000000   0.000000  
; MC501
MC501            6.800000   1.533000   0.000000   0.000000   0.000000  
; MC502
MC502            7.600000   2.020000   0.000000   0.000000   0.000000  
; MC503
MC503            8.000000   2.016000   0.000000   0.000000   0.000000  
; MC504
MC504            10.091000  2.000000   0.000000   0.000000   0.000000  
; MC103
MC103            -4.050000  9.929000   0.000000   0          0         

[OUTFALLS]
;;Name           Elevation  Type       Stage Data       Gated    Route To        
;;-------------- ---------- ---------- ---------------- -------- ----------------
1                0          FREE                        NO                       

[CONDUITS]
;;Name           From Node        To Node          Length     Roughness  InOffset   OutOffset  InitFlow   MaxFlow   
;;-------------- ---------------- ---------------- ---------- ---------- ---------- ---------- ---------- ----------
; New Conduit
CDT-23           JCT-12           MC103            716.900000 0.012800   0.000000   2.900000   0.000000   0.000000  
; MC104_MC103
MC104_MC103      MC104            MC103            398.700000 0.012800   0.000000   3.000000   0.000000   0.000000  
; MC105_MC104
MC105_MC104      MC105            MC104            599.400000 0.012800   0.000000   0.100000   0.000000   0.000000  
; MC106_MC105
MC106_MC105      MC106            MC105            145.700000 0.012800   0.000000   0.150000   0.000000   0.000000  
; MC107_MC106
MC107_MC106      MC107            MC106            431.100000 0.012800   0.000000   0.100000   0.000000   0.000000  
; MC108_MC107
MC108_MC107      MC108            MC107            206.100000 0.012800   0.000000   0.100000   0.000000   0.000000  
; MC109_MC108
MC109_MC108      MC109            MC108            256.100000 0.012800   0.000000   0.100000   0.000000   0.000000  
; MC110_MC109
MC110_MC109      MC110            MC109            667.000000 0.012800   0.000000   0.100000   0.000000   0.000000  
; MC111_MC110
MC111_MC110      MC111            MC110            154.800000 0.012800   0.000000   0.100000   0.000000   0.000000  
; MC112_MC111
MC112_MC111      MC112            MC111            301.000000 0.012800   0.000000   0.100000   0.000000   0.000000  
; MC113_MC112
MC113_MC112      MC113            MC112            531.300000 0.012800   0.000000   0.100000   0.000000   0.000000  
; MC140_MC111
MC140_MC111      MC140            MC111            222.600000 0.012800   0.000000   0.950000   0.000000   0.000000  
; MC400_MC105
MC400_MC105      MC400            MC105            129.600000 0.012800   -0.020000  1.950000   0.000000   0.000000  
; MC401_MC400
MC401_MC400      MC401            MC400            349.400000 0.012800   -0.080000  0.080000   0.000000   0.000000  
; MC402_MC401
MC402_MC401      MC402            MC401            87.600000  0.012800   -0.050000  0.020000   0.000000   0.000000  
; MC403_MC402
MC403_MC402      MC403            MC402            81.000000  0.012800   0.000000   0.050000   0.000000   0.000000  
; MC404_MC403
MC404_MC403      MC404            MC403            296.300000 0.012800   0.000000   0.010000   0.000000   0.000000  
; MC405_MC404
MC405_MC404      MC405            MC404            258.000000 0.012800   0.000000   0.100000   0.000000   0.000000  
; MC406_MC405
MC406_MC405      MC406            MC405            228.300000 0.012800   0.000000   0.450000   0.000000   0.000000  
; MC407_MC406
MC407_MC406      MC407            MC406            592.800000 0.012800   0.000000   0.100000   0.000000   0.000000  
; MC410_MC405
MC410_MC405      MC410            MC405            337.100000 0.012800   0.000000   0.100000   0.000000   0.000000  
; MC500_MC109
MC500_MC109      MC500            MC109            179.100000 0.012800   0.000000   3.250000   0.000000   0.000000  
; MC501_MC500
MC501_MC500      MC501            MC500            59.200000  0.012800   0.000000   0.100000   0.000000   0.000000  
; MC502_MC501
MC502_MC501      MC502            MC501            227.700000 0.012800   0.000000   0.100000   0.000000   0.000000  
; MC503_MC502
MC503_MC502      MC503            MC502            106.200000 0.012800   0.000000   0.100000   0.000000   0.000000  
; MC504_MC503
MC504_MC503      MC504            MC503            309.500000 0.012800   0.000000   0.100000   0.000000   0.000000  

[XSECTIONS]
;;Link           Shape        Geom1            Geom2      Geom3      Geom4      Barrels    Culvert   
;;-------------- ------------ ---------------- ---------- ---------- ---------- ---------- ----------
CDT-23           CIRCULAR     0.300000         0.000000   0.000000   0.000000   1          0         
MC104_MC103      CIRCULAR     0.885000         0.000000   0.000000   0.000000   1          0         
MC105_MC104      CIRCULAR     0.762000         0.000000   0.000000   0.000000   1          0         
MC106_MC105      CIRCULAR     0.522000         0.000000   0.000000   0.000000   1          0         
MC107_MC106      CIRCULAR     0.522000         0.000000   0.000000   0.000000   1          0         
MC108_MC107      CIRCULAR     0.447000         0.000000   0.000000   0.000000   1          0         
MC109_MC108      CIRCULAR     0.447000         0.000000   0.000000   0.000000   1          0         
MC110_MC109      CIRCULAR     0.300000         0.000000   0.000000   0.000000   1          0         
MC111_MC110      CIRCULAR     0.300000         0.000000   0.000000   0.000000   1          0         
MC112_MC111      CIRCULAR     0.225000         0.000000   0.000000   0.000000   1          0         
MC113_MC112      CIRCULAR     0.225000         0.000000   0.000000   0.000000   1          0         
MC140_MC111      CIRCULAR     0.225000         0.000000   0.000000   0.000000   1          0         
MC400_MC105      CIRCULAR     0.447000         0.000000   0.000000   0.000000   1          0         
MC401_MC400      CIRCULAR     0.447000         0.000000   0.000000   0.000000   1          0         
MC402_MC401      CIRCULAR     0.447000         0.000000   0.000000   0.000000   1          0         
MC403_MC402      CIRCULAR     0.447000         0.000000   0.000000   0.000000   1          0         
MC404_MC403      CIRCULAR     0.447000         0.000000   0.000000   0.000000   1          0         
MC405_MC404      CIRCULAR     0.373000         0.000000   0.000000   0.000000   1          0         
MC406_MC405      CIRCULAR     0.373000         0.000000   0.000000   0.000000   1          0         
MC407_MC406      CIRCULAR     0.225000         0.000000   0.000000   0.000000   1          0         
MC410_MC405      CIRCULAR     0.225000         0.000000   0.000000   0.000000   1          0         
MC500_MC109      CIRCULAR     0.300000         0.000000   0.000000   0.000000   1          0         
MC501_MC500      CIRCULAR     0.300000         0.000000   0.000000   0.000000   1          0         
MC502_MC501      CIRCULAR     0.300000         0.000000   0.000000   0.000000   1          0         
MC503_MC502      CIRCULAR     0.300000         0.000000   0.000000   0.000000   1          0         
MC504_MC503      CIRCULAR     0.225000         0.000000   0.000000   0.000000   1          0         

[LOSSES]
;;Link           Kentry     Kexit      Kavg       Flap Gate  Seepage   
;;-------------- ---------- ---------- ---------- ---------- ----------
CDT-23           0.000000   0.000000   0.000000   NO         0.000000  
MC104_MC103      0.151500   0.015150   0.000000   NO         0.000000  
MC105_MC104      0.985500   0.015150   0.000000   NO         0.000000  
MC106_MC105      0.976500   0.098550   0.000000   NO         0.000000  
MC107_MC106      0.304500   0.097650   0.000000   NO         0.000000  
MC108_MC107      0.487500   0.030450   0.000000   NO         0.000000  
MC109_MC108      0.975000   0.048750   0.000000   NO         0.000000  
MC110_MC109      0.688500   0.017400   0.000000   NO         0.000000  
MC111_MC110      0.154500   0.068850   0.000000   NO         0.000000  
MC112_MC111      0.616500   0.015450   0.000000   NO         0.000000  
MC113_MC112      0.150000   0.061650   0.000000   NO         0.000000  
MC140_MC111      0.150000   0.120000   0.000000   NO         0.000000  
MC400_MC105      0.168000   0.120000   0.000000   NO         0.000000  
MC401_MC400      0.541500   0.016800   0.000000   NO         0.000000  
MC402_MC401      0.441000   0.054150   0.000000   NO         0.000000  
MC403_MC402      0.483000   0.044100   0.000000   NO         0.000000  
MC404_MC403      0.150000   0.048300   0.000000   NO         0.000000  
MC405_MC404      0.159000   0.015000   0.000000   NO         0.000000  
MC406_MC405      0.184500   0.015900   0.000000   NO         0.000000  
MC407_MC406      0.150000   0.018450   0.000000   NO         0.000000  
MC410_MC405      0.150000   0.098700   0.000000   NO         0.000000  
MC500_MC109      0.231000   0.097500   0.000000   NO         0.000000  
MC501_MC500      0.211500   0.023100   0.000000   NO         0.000000  
MC502_MC501      0.711000   0.021150   0.000000   NO         0.000000  
MC503_MC502      0.691500   0.071100   0.000000   NO         0.000000  
MC504_MC503      0.150000   0.069150   0.000000   NO         0.000000  

[CONTROLS]






[INFLOWS]
;;Node           Constituent      Time Series      Type     Mfactor  Sfactor  Baseline Pattern
;;-------------- ---------------- ---------------- -------- -------- -------- -------- --------
JCT-12           FLOW             ""               FLOW     1.0      1.000000         
MC105            FLOW             ""               FLOW     1.0      1.000000         

[DWF]
;;Node           Constituent      Baseline   Patterns  
;;-------------- ---------------- ---------- ----------
JCT-12           FLOW             1912.240000 "1X210"
MC104            FLOW             2412.170926 "1X210"
MC106            FLOW             591.768022 "1X210"
MC107            FLOW             1098.532435 "1X210"
MC109            FLOW             972.881377 "1X210"
MC111            FLOW             513.890387 "1X210"
MC112            FLOW             935.000819 "1X210"
MC113            FLOW             935.000819 "1X210"
MC140            FLOW             1087.818464 "1X210"
MC400            FLOW             709.711312 "1X210"
MC403            FLOW             1233.780738 "1X210"
MC404            FLOW             616.890369 "1X210"
MC405            FLOW             2003.098484 "1X210"
MC406            FLOW             2.548817   "1X210"
MC407            FLOW             1831.642917 "1X210"
MC410            FLOW             1144.586616 "1X210"
MC501            FLOW             972.881377 "1X210"
MC503            FLOW             2444.484023 "1X210"
MC504            FLOW             828.132506 "1X210"
MC103            FLOW             1137.903655 "1X210"

[CURVES]
;;Name           Type       X-Value    Y-Value   
;;-------------- ---------- ---------- ----------
LMT114           PUMP2      -4.000000  92.000000 
LMT114                      -3.000000  92.000000 
;
; Fixed Pump 236.3L/s based on Upstream EP
MC103_LIFT       PUMP2      0.000000   236.300000
MC103_LIFT                  100.000000 236.310000
;
; Fixed Pump 236.3L/s based on Upstream EP
PUMP_OPT_1       PUMP2      0.000000   236.300000
PUMP_OPT_1                  100.000000 236.310000
;
SPS001-30000     PUMP4      -5.700000  292.000000
SPS001-30000                2.500000   292.000000
;
SPS001-45000     PUMP4      -5.700000  292.000000
SPS001-45000                2.500000   292.000000
;
SPS001ULT        PUMP4      -5.700000  575.000000
SPS001ULT                   2.500000   575.000000
;
; SPS002A, ULT
SPS002           PUMP4      -3.800000  94.000000 
SPS002                      1.500000   94.000000 
;
SPS002-30000     PUMP4      -3.800000  89.500000 
SPS002-30000                1.500000   89.500000 
;
SPS002-45000     PUMP4      -3.800000  138.000000
SPS002-45000                1.500000   138.000000
;
; SPS002-15000
SPS002B          PUMP4      -2.500000  138.000000
SPS002B                     1.500000   138.000000
;
SPS002_A-45000   PUMP2      -5.700000  45.000000 
SPS002_A-45000              1.500000   45.000000 
;
SPS003           PUMP4      0.500000   20.000000 
SPS003                      12.056000  20.000000 
;
SPS004           PUMP4      -0.695000  148.000000
SPS004                      1.500000   148.000000
;
SPSA-15000       PUMP4      -5.700000  65.800000 
SPSA-15000                  1.500000   65.800000 
;
SPSA-15000EP     PUMP4      -5.700000  66.000000 
SPSA-15000EP                1.500000   66.000000 

[PATTERNS]
;;Name           Type       Multipliers
;;-------------- ---------- -----------
; ADWF: 210L/EP/day
1X210            DAILY      0.002431 0.002431 0.002431 0.002431 0.002431 0.002431 0.002431
;
; PWWF: 4x210L/EP/day
4X210            DAILY      0.009722 0.009722 0.009722 0.009722 0.009722 0.009722 0.009722
;
; PWWWF: 5x210L/EP/day
5X210            DAILY      0.012153 0.012153 0.012153 0.012153 0.012153 0.012153 0.012153

[REPORT]
;;Reporting Options
INPUT      NO
CONTROLS   NO
SUBCATCHMENTS ALL
NODES ALL
LINKS ALL

[TAGS]

[MAP]
DIMENSIONS 503339.841 7030983.178 507289.431 7033730.782
Units      None

[COORDINATES]
;;Node           X-Coord            Y-Coord           
;;-------------- ------------------ ------------------
JCT-12           507109.904         7032319.289       
MC104            506011.300         7032470.400       
MC105            505419.053         7032562.803       
MC106            505392.807         7032419.462       
MC107            504963.908         7032463.453       
MC108            504759.592         7032436.169       
MC109            504555.045         7032282.096       
MC110            504007.612         7031900.998       
MC111            503978.409         7031748.989       
MC112            503923.414         7031453.059       
MC113            503519.368         7031108.069       
MC140            503760.967         7031796.399       
MC400            505442.430         7032690.227       
MC401            505497.200         7033035.354       
MC402            505461.209         7033115.266       
MC403            505400.533         7033168.919       
MC404            505109.323         7033223.629       
MC405            504856.316         7033274.049       
MC406            504631.819         7033315.308       
MC407            504047.732         7033416.577       
MC410            504915.900         7033605.891       
MC500            504435.195         7032415.206       
MC501            504401.170         7032463.683       
MC502            504288.532         7032661.583       
MC503            504185.632         7032687.938       
MC504            503918.048         7032532.448       
MC103            506405.104         7032408.216       
1                505820.865         7031737.285       

[VERTICES]
;;Link           X-Coord            Y-Coord           
;;-------------- ------------------ ------------------
CDT-23           506426.481         7032414.756       

