[OPTIONS]
;Option and Files Scenario Set: 2031_2A_IDEAL, 2031 Scenario 2A Simulation Options - CLM082 Set to Ideal
FLOW_UNITS	LPS
INFILTRATION	HORTON
FLOW_ROUTING	DYNWAVE
ALLOW_PONDING	NO
DRY_DAYS	5.000000
SKIP_STEADY_STATE 	NO
IGNORE_RAINFALL	YES
IGNORE_SNOWMELT	YES
IGNORE_GROUNDWATER	YES
IGNORE_QUALITY	YES
FORCE_MAIN_EQUATION	H-W
LINK_OFFSETS	DEPTH
MIN_SLOPE	0.000000
START_DATE	01/01/2002
START_TIME	00:00
END_DATE	01/01/2002
END_TIME	12:00
REPORT_START_DATE	01/01/2002
REPORT_START_TIME	00:00
SWEEP_START	01/01
SWEEP_END	12/31
WET_STEP	01:00:00
DRY_STEP	23:00:00
ROUTING_STEP	1
REPORT_STEP	00:05:00
INERTIAL_DAMPING	NONE
VARIABLE_STEP	0.000000
MINIMUM_STEP	0.5
LENGTHENING_STEP	30
MIN_SURFAREA	0.000000
NORMAL_FLOW_LIMITED	BOTH
MAX_TRIALS	8
HEAD_TOLERANCE	0.001000

[FILES]

[RAINGAGES]

[HYDROGRAPHS]

[TEMPERATURE]

[ADJUSTMENTS]

[SUBCATCHMENTS]

[SUBAREAS]

[INFILTRATION]

[AQUIFERS]

[GROUNDWATER]

[GWF]

[SNOWPACKS]

[JUNCTIONS]
1000	22.300000	1.790000	0.000000	0.000000	0.000000
1001	28.790000	1.540000	0.000000	0.000000	0.000000
1002	34.650000	1.480000	0.000000	0.000000	0.000000
1003	28.940000	0.990000	0.000000	0.000000	0.000000
1004	37.500000	1.800000	0.000000	0.000000	0.000000
1005	12.650000	1.700000	0.000000	0.000000	0.000000
1006	11.620000	1.270000	0.000000	0.000000	0.000000
1007	14.410000	1.190000	0.000000	0.000000	0.000000
1008	16.820000	2.500000	0.000000	0.000000	0.000000
1009	17.200000	1.770000	0.000000	0.000000	0.000000
101	1.220000	2.540000	0.000000	0.000000	0.000000
1010	18.350000	1.420000	0.000000	0.000000	0.000000
1011	20.490000	2.010000	0.000000	0.000000	0.000000
1012	26.510000	1.620000	0.000000	0.000000	0.000000
1013	29.750000	2.090000	0.000000	0.000000	0.000000
1014	49.910000	2.100000	0.000000	0.000000	0.000000
1015	28.340000	1.350000	0.000000	0.000000	0.000000
1016	47.930000	3.680000	0.000000	0.000000	0.000000
1017	42.550000	3.240000	0.000000	0.000000	0.000000
1018	49.180000	2.040000	0.000000	0.000000	0.000000
1019	55.070000	1.560000	0.000000	0.000000	0.000000
1020	62.130000	2.620000	0.000000	0.000000	0.000000
1021	53.090000	2.520000	0.000000	0.000000	0.000000
1022	45.310000	3.210000	0.000000	0.000000	0.000000
1023	53.140000	1.470000	0.000000	0.000000	0.000000
1024	71.380000	2.500000	0.000000	0.000000	0.000000
1025	72.640000	1.350000	0.000000	0.000000	0.000000
1026	72.810000	0.930000	0.000000	0.000000	0.000000
1027	76.450000	0.700000	0.000000	0.000000	0.000000
1028	76.970000	1.150000	0.000000	0.000000	0.000000
1029	78.700000	2.620000	0.000000	0.000000	0.000000
1030	82.800000	2.650000	0.000000	0.000000	0.000000
1031	74.500000	2.600000	0.000000	0.000000	0.000000
1032	75.150000	1.250000	0.000000	0.000000	0.000000
1033	76.220000	1.160000	0.000000	0.000000	0.000000
1034	1.750000	1.840000	0.000000	0.000000	0.000000
1035	1.720000	1.540000	0.000000	0.000000	0.000000
1036	1.500000	1.640000	0.000000	0.000000	0.000000
1037	1.330000	1.880000	0.000000	0.000000	0.000000
1038	1.140000	1.960000	0.000000	0.000000	0.000000
1039	1.000000	2.010000	0.000000	0.000000	0.000000
1040	3.720000	1.400000	0.000000	0.000000	0.000000
1041	4.350000	1.160000	0.000000	0.000000	0.000000
1042	2.930000	1.420000	0.000000	0.000000	0.000000
1043	2.510000	1.370000	0.000000	0.000000	0.000000
1044	2.240000	1.540000	0.000000	0.000000	0.000000
1045	2.000000	1.670000	0.000000	0.000000	0.000000
1046	2.840000	1.840000	0.000000	0.000000	0.000000
1047	4.370000	2.560000	0.000000	0.000000	0.000000
1048	8.740000	1.350000	0.000000	0.000000	0.000000
1049	1.960000	1.820000	0.000000	0.000000	0.000000
1050	2.190000	2.090000	0.000000	0.000000	0.000000
1051	5.000000	1.800000	0.000000	0.000000	0.000000
1052	8.110000	1.430000	0.000000	0.000000	0.000000
1053	3.210000	1.450000	0.000000	0.000000	0.000000
1054	3.900000	1.130000	0.000000	0.000000	0.000000
1055	2.500000	1.530000	0.000000	0.000000	0.000000
1056	5.440000	0.890000	0.000000	0.000000	0.000000
1057	4.600000	1.210000	0.000000	0.000000	0.000000
1058	7.680000	1.510000	0.000000	0.000000	0.000000
1059	35.210000	1.910000	0.000000	0.000000	0.000000
1060	26.730000	1.530000	0.000000	0.000000	0.000000
1061	24.850000	1.790000	0.000000	0.000000	0.000000
1062	19.850000	1.980000	0.000000	0.000000	0.000000
1063	14.730000	1.580000	0.000000	0.000000	0.000000
1064	8.190000	1.830000	0.000000	0.000000	0.000000
1065	15.670000	1.500000	0.000000	0.000000	0.000000
1066	16.540000	2.130000	0.000000	0.000000	0.000000
1067	30.390000	1.440000	0.000000	0.000000	0.000000
1068	16.300000	1.420000	0.000000	0.000000	0.000000
1069	21.710000	2.320000	0.000000	0.000000	0.000000
1070	25.080000	1.900000	0.000000	0.000000	0.000000
1071	28.100000	1.900000	0.000000	0.000000	0.000000
1072	29.970000	1.540000	0.000000	0.000000	0.000000
1073	34.050000	1.380000	0.000000	0.000000	0.000000
1074	39.570000	1.530000	0.000000	0.000000	0.000000
1075	7.840000	21.890000	0.000000	0.000000	0.000000
1076	23.240000	2.700000	0.000000	0.000000	0.000000
1077	15.910000	1.880000	0.000000	0.000000	0.000000
1078	15.400000	1.860000	0.000000	0.000000	0.000000
1079	32.450000	2.750000	0.000000	0.000000	0.000000
1080	39.490000	3.400000	0.000000	0.000000	0.000000
1081	26.280000	2.070000	0.000000	0.000000	0.000000
1082	32.850000	2.920000	0.000000	0.000000	0.000000
1083	33.510000	1.640000	0.000000	0.000000	0.000000
1084	30.110000	2.100000	0.000000	0.000000	0.000000
1085	43.570000	2.130000	0.000000	0.000000	0.000000
1086	36.770000	2.231000	0.000000	0.000000	0.000000
1087	12.430000	1.900000	0.000000	0.000000	0.000000
1088	10.920000	1.500000	0.000000	0.000000	0.000000
1089	11.870000	1.390000	0.000000	0.000000	0.000000
109	1.200000	1.480000	0.000000	0.000000	0.000000
1090	11.640000	1.160000	0.000000	0.000000	0.000000
1091	13.970000	1.440000	0.000000	0.000000	0.000000
1092	7.560000	2.600000	0.000000	0.000000	0.000000
1093	8.730000	1.610000	0.000000	0.000000	0.000000
1094	10.190000	3.950000	0.000000	0.000000	0.000000
1095	10.800000	2.330000	0.000000	0.000000	0.000000
1096	11.480000	1.470000	0.000000	0.000000	0.000000
1097	14.530000	1.810000	0.000000	0.000000	0.000000
1098	15.730000	1.720000	0.000000	0.000000	0.000000
1099	13.930000	1.610000	0.000000	0.000000	0.000000
110	5.990000	1.530000	0.000000	0.000000	0.000000
1100	18.690000	1.830000	0.000000	0.000000	0.000000
1101	15.470000	1.540000	0.000000	0.000000	0.000000
1102	19.720000	1.790000	0.000000	0.000000	0.000000
1103	27.870000	2.610000	0.000000	0.000000	0.000000
1104	20.970000	2.840000	0.000000	0.000000	0.000000
1105	21.500000	2.000000	0.000000	0.000000	0.000000
1106	15.860000	1.300000	0.000000	0.000000	0.000000
1107	18.070000	1.130000	0.000000	0.000000	0.000000
1108	22.400000	1.600000	0.000000	0.000000	0.000000
1109	7.740000	1.610000	0.000000	0.000000	0.000000
1110	10.260000	1.760000	0.000000	0.000000	0.000000
1111	10.600000	2.070000	0.000000	0.000000	0.000000
1112	14.240000	1.740000	0.000000	0.000000	0.000000
1113	23.760000	1.710000	0.000000	0.000000	0.000000
1114	21.060000	1.690000	0.000000	0.000000	0.000000
1115	16.900000	2.090000	0.000000	0.000000	0.000000
1116	17.680000	2.080000	0.000000	0.000000	0.000000
1117	6.470000	2.680000	0.000000	0.000000	0.000000
1118	15.160000	1.710000	0.000000	0.000000	0.000000
1119	11.340000	1.280000	0.000000	0.000000	0.000000
1120	6.320000	2.270000	0.000000	0.000000	0.000000
1121	11.470000	1.420000	0.000000	0.000000	0.000000
1122	14.810000	1.240000	0.000000	0.000000	0.000000
1123	5.790000	2.350000	0.000000	0.000000	0.000000
1124	8.900000	1.380000	0.000000	0.000000	0.000000
1125	10.140000	1.560000	0.000000	0.000000	0.000000
1126	5.280000	2.720000	0.000000	0.000000	0.000000
1127	14.290000	1.310000	0.000000	0.000000	0.000000
1128	11.560000	2.030000	0.000000	0.000000	0.000000
1129	9.590000	1.670000	0.000000	0.000000	0.000000
113	2.360000	1.814000	0.000000	0.000000	0.000000
1130	7.840000	1.800000	0.000000	0.000000	0.000000
1131	9.110000	1.560000	0.000000	0.000000	0.000000
1132	10.380000	1.750000	0.000000	0.000000	0.000000
1133	6.750000	1.810000	0.000000	0.000000	0.000000
1134	4.560000	3.350000	0.000000	0.000000	0.000000
1135	4.170000	3.450000	0.000000	0.000000	0.000000
1136	8.010000	2.240000	0.000000	0.000000	0.000000
1137	8.930000	1.760000	0.000000	0.000000	0.000000
1138	7.770000	3.340000	0.000000	0.000000	0.000000
1139	3.800000	4.070000	0.000000	0.000000	0.000000
1140	3.630000	2.620000	0.000000	0.000000	0.000000
1141	7.350000	1.520000	0.000000	0.000000	0.000000
1142	8.100000	2.510000	0.000000	0.000000	0.000000
1143	13.230000	1.410000	0.000000	0.000000	0.000000
1144	12.810000	1.860000	0.000000	0.000000	0.000000
1145	15.030000	1.590000	0.000000	0.000000	0.000000
1146	24.130000	1.900000	0.000000	0.000000	0.000000
1147	24.480000	1.850000	0.000000	0.000000	0.000000
1148	18.200000	2.320000	0.000000	0.000000	0.000000
1149	10.160000	3.430000	0.000000	0.000000	0.000000
115	3.140000	2.840000	0.000000	0.000000	0.000000
1150	13.180000	1.490000	0.000000	0.000000	0.000000
1151	10.680000	2.050000	0.000000	0.000000	0.000000
1152	11.000000	1.740000	0.000000	0.000000	0.000000
1153	16.120000	1.780000	0.000000	0.000000	0.000000
1154	7.380000	1.920000	0.000000	0.000000	0.000000
1155	4.260000	3.480000	0.000000	0.000000	0.000000
1156	4.480000	3.460000	0.000000	0.000000	0.000000
1157	7.150000	1.410000	0.000000	0.000000	0.000000
1158	6.490000	1.730000	0.000000	0.000000	0.000000
1159	7.200000	1.780000	0.000000	0.000000	0.000000
116	3.290000	2.750000	0.000000	0.000000	0.000000
1160	7.380000	1.480000	0.000000	0.000000	0.000000
1161	13.620000	2.150000	0.000000	0.000000	0.000000
1162	9.760000	2.020000	0.000000	0.000000	0.000000
1163	10.060000	1.790000	0.000000	0.000000	0.000000
1164	11.080000	1.620000	0.000000	0.000000	0.000000
1165	38.740000	2.850000	0.000000	0.000000	0.000000
1166	10.290000	0.930000	0.000000	0.000000	0.000000
1167	7.320000	1.880000	0.000000	0.000000	0.000000
1168	7.090000	1.420000	0.000000	0.000000	0.000000
1169	6.700000	1.820000	0.000000	0.000000	0.000000
117	3.550000	2.280000	0.000000	0.000000	0.000000
1170	8.260000	1.560000	0.000000	0.000000	0.000000
1171	6.160000	1.460000	0.000000	0.000000	0.000000
1172	6.460000	2.240000	0.000000	0.000000	0.000000
1173	6.460000	2.040000	0.000000	0.000000	0.000000
1174	6.490000	2.060000	0.000000	0.000000	0.000000
1175	16.360000	1.260000	0.000000	0.000000	0.000000
1176	20.460000	1.080000	0.000000	0.000000	0.000000
1177	20.940000	0.940000	0.000000	0.000000	0.000000
1178	26.010000	1.300000	0.000000	0.000000	0.000000
1179	30.600000	2.690000	0.000000	0.000000	0.000000
118	3.690000	2.300000	0.000000	0.000000	0.000000
1180	24.960000	2.120000	0.000000	0.000000	0.000000
1181	37.290000	1.900000	0.000000	0.000000	0.000000
1182	34.700000	2.170000	0.000000	0.000000	0.000000
1183	31.170000	2.540000	0.000000	0.000000	0.000000
1184	22.370000	1.500000	0.000000	0.000000	0.000000
1185	21.510000	2.880000	0.000000	0.000000	0.000000
1186	16.700000	1.630000	0.000000	0.000000	0.000000
1187	16.190000	1.280000	0.000000	0.000000	0.000000
1188	15.160000	1.680000	0.000000	0.000000	0.000000
1189	16.250000	1.730000	0.000000	0.000000	0.000000
1190	33.690000	2.100000	0.000000	0.000000	0.000000
1191	38.120000	2.150000	0.000000	0.000000	0.000000
1192	22.910000	2.000000	0.000000	0.000000	0.000000
1193	34.970000	1.540000	0.000000	0.000000	0.000000
1194	13.210000	0.950000	0.000000	0.000000	0.000000
1195	7.870000	3.080000	0.000000	0.000000	0.000000
1196	8.100000	2.960000	0.000000	0.000000	0.000000
1197	8.720000	2.130000	0.000000	0.000000	0.000000
1198	9.700000	2.390000	0.000000	0.000000	0.000000
1199	15.070000	1.540000	0.000000	0.000000	0.000000
1200	8.800000	1.790000	0.000000	0.000000	0.000000
1201	9.340000	2.080000	0.000000	0.000000	0.000000
1202	9.690000	2.070000	0.000000	0.000000	0.000000
1203	84.600000	1.320000	0.000000	0.000000	0.000000
1204	85.420000	1.490000	0.000000	0.000000	0.000000
1205	4.410000	2.580000	0.000000	0.000000	0.000000
1206	7.210000	2.600000	0.000000	0.000000	0.000000
1207	12.580000	1.870000	0.000000	0.000000	0.000000
1208	13.530000	1.820000	0.000000	0.000000	0.000000
1209	13.040000	1.360000	0.000000	0.000000	0.000000
1210	14.550000	1.580000	0.000000	0.000000	0.000000
1211	17.170000	1.820000	0.000000	0.000000	0.000000
1212	17.390000	1.790000	0.000000	0.000000	0.000000
1213	7.320000	1.910000	0.000000	0.000000	0.000000
1214	14.190000	1.460000	0.000000	0.000000	0.000000
1215	7.730000	1.560000	0.000000	0.000000	0.000000
1216	11.410000	1.310000	0.000000	0.000000	0.000000
1217	50.250000	2.300000	0.000000	0.000000	0.000000
1218	61.930000	3.180000	0.000000	0.000000	0.000000
1219	75.480000	1.770000	0.000000	0.000000	0.000000
1220	78.490000	2.910000	0.000000	0.000000	0.000000
1221	72.710000	2.400000	0.000000	0.000000	0.000000
1222	64.310000	2.570000	0.000000	0.000000	0.000000
1223	65.770000	1.980000	0.000000	0.000000	0.000000
1224	74.080000	1.140000	0.000000	0.000000	0.000000
1225	76.210000	2.050000	0.000000	0.000000	0.000000
1226	79.140000	1.500000	0.000000	0.000000	0.000000
1227	81.380000	1.300000	0.000000	0.000000	0.000000
1228	39.273000	1.327000	0.000000	0.000000	0.000000
1229	58.190000	2.290000	0.000000	0.000000	0.000000
1230	4.510000	1.980000	0.000000	0.000000	0.000000
1231	7.140000	2.830000	0.000000	0.000000	0.000000
1232	8.630000	1.860000	0.000000	0.000000	0.000000
1233	10.250000	2.000000	0.000000	0.000000	0.000000
1234	9.140000	2.550000	0.000000	0.000000	0.000000
1235	18.760000	1.210000	0.000000	0.000000	0.000000
1236	22.930000	1.380000	0.000000	0.000000	0.000000
1237	10.970000	3.400000	0.000000	0.000000	0.000000
1238	15.340000	1.400000	0.000000	0.000000	0.000000
1239	24.600000	2.350000	0.000000	0.000000	0.000000
1240	29.030000	1.620000	0.000000	0.000000	0.000000
1241	29.600000	2.060000	0.000000	0.000000	0.000000
1242	37.070000	1.460000	0.000000	0.000000	0.000000
1243	39.100000	1.980000	0.000000	0.000000	0.000000
1244	43.440000	2.480000	0.000000	0.000000	0.000000
1245	44.340000	1.700000	0.000000	0.000000	0.000000
1246	44.630000	2.850000	0.000000	0.000000	0.000000
1247	20.440000	2.010000	0.000000	0.000000	0.000000
1248	17.430000	2.280000	0.000000	0.000000	0.000000
1249	22.460000	2.160000	0.000000	0.000000	0.000000
1250	24.820000	1.810000	0.000000	0.000000	0.000000
1251	36.090000	1.780000	0.000000	0.000000	0.000000
1252	36.350000	1.650000	0.000000	0.000000	0.000000
1253	36.770000	3.280000	0.000000	0.000000	0.000000
1254	38.670000	4.850000	0.000000	0.000000	0.000000
1255	49.140000	1.820000	0.000000	0.000000	0.000000
1256	44.600000	1.380000	0.000000	0.000000	0.000000
1257	44.910000	5.170000	0.000000	0.000000	0.000000
1258	22.980000	1.780000	0.000000	0.000000	0.000000
1259	24.990000	1.380000	0.000000	0.000000	0.000000
1260	36.350000	1.410000	0.000000	0.000000	0.000000
1261	39.690000	1.440000	0.000000	0.000000	0.000000
1262	53.720000	2.680000	0.000000	0.000000	0.000000
1263	41.620000	1.550000	0.000000	0.000000	0.000000
1264	11.160000	1.670000	0.000000	0.000000	0.000000
1265	18.400000	0.880000	0.000000	0.000000	0.000000
1266	22.140000	1.440000	0.000000	0.000000	0.000000
1267	3.140000	1.580000	0.000000	0.000000	0.000000
1268	2.850000	2.860000	0.000000	0.000000	0.000000
1269	0.510000	3.750000	0.000000	0.000000	0.000000
1270	0.600000	3.680000	0.000000	0.000000	0.000000
1271	0.700000	3.570000	0.000000	0.000000	0.000000
1272	0.770000	3.430000	0.000000	0.000000	0.000000
1273	1.060000	3.790000	0.000000	0.000000	0.000000
1274	1.310000	3.650000	0.000000	0.000000	0.000000
1275	1.530000	3.650000	0.000000	0.000000	0.000000
1276	1.910000	2.350000	0.000000	0.000000	0.000000
1277	2.100000	2.200000	0.000000	0.000000	0.000000
1278	1.260000	3.310000	0.000000	0.000000	0.000000
1279	1.480000	3.270000	0.000000	0.000000	0.000000
1280	1.740000	3.250000	0.000000	0.000000	0.000000
1281	2.060000	4.200000	0.000000	0.000000	0.000000
1282	2.220000	4.120000	0.000000	0.000000	0.000000
1283	2.250000	1.840000	0.000000	0.000000	0.000000
1284	1.460000	3.610000	0.000000	0.000000	0.000000
1285	1.510000	3.920000	0.000000	0.000000	0.000000
1286	1.610000	4.200000	0.000000	0.000000	0.000000
1287	-0.858000	4.048000	0.000000	0.000000	0.000000
1288	4.660000	2.300000	0.000000	0.000000	0.000000
1289	2.110000	4.710000	0.000000	0.000000	0.000000
1290	5.000000	3.750000	0.000000	0.000000	0.000000
1291	7.460000	1.630000	0.000000	0.000000	0.000000
1292	3.210000	2.360000	0.000000	0.000000	0.000000
1293	2.760000	1.920000	0.000000	0.000000	0.000000
1294	3.600000	2.480000	0.000000	0.000000	0.000000
1295	4.670000	2.960000	0.000000	0.000000	0.000000
1296	5.840000	1.620000	0.000000	0.000000	0.000000
1297	7.610000	1.590000	0.000000	0.000000	0.000000
1298	9.300000	1.600000	0.000000	0.000000	0.000000
1299	7.600000	1.700000	0.000000	0.000000	0.000000
1300	6.950000	1.460000	0.000000	0.000000	0.000000
1301	9.700000	1.310000	0.000000	0.000000	0.000000
1302	8.050000	1.970000	0.000000	0.000000	0.000000
1303	10.690000	1.370000	0.000000	0.000000	0.000000
1304	6.560000	1.450000	0.000000	0.000000	0.000000
1305	5.310000	1.190000	0.000000	0.000000	0.000000
1306	10.200000	1.340000	0.000000	0.000000	0.000000
1307	1.740000	3.280000	0.000000	0.000000	0.000000
1308	3.920000	1.880000	0.000000	0.000000	0.000000
1309	5.890000	1.940000	0.000000	0.000000	0.000000
1310	4.840000	2.070000	0.000000	0.000000	0.000000
1311	1.200000	2.580000	0.000000	0.000000	0.000000
1312	12.410000	2.040000	0.000000	0.000000	0.000000
1313	1.770000	4.030000	0.000000	0.000000	0.000000
1314	2.190000	1.320000	0.000000	0.000000	0.000000
1315	3.970000	2.450000	0.000000	0.000000	0.000000
1316	6.160000	2.890000	0.000000	0.000000	0.000000
1317	2.550000	2.220000	0.000000	0.000000	0.000000
1318	2.420000	2.410000	0.000000	0.000000	0.000000
1319	2.000000	3.000000	0.000000	0.000000	0.000000
1320	1.800000	3.560000	0.000000	0.000000	0.000000
1321	4.980000	1.770000	0.000000	0.000000	0.000000
1322	9.170000	3.130000	0.000000	0.000000	0.000000
1323	10.940000	3.470000	0.000000	0.000000	0.000000
1324	8.700000	3.020000	0.000000	0.000000	0.000000
1325	7.990000	1.470000	0.000000	0.000000	0.000000
1326	3.950000	1.880000	0.000000	0.000000	0.000000
1327	9.860000	1.260000	0.000000	0.000000	0.000000
1328	12.050000	1.430000	0.000000	0.000000	0.000000
1329	9.250000	1.630000	0.000000	0.000000	0.000000
1330	4.930000	1.430000	0.000000	0.000000	0.000000
1331	5.350000	1.420000	0.000000	0.000000	0.000000
1332	6.160000	1.160000	0.000000	0.000000	0.000000
1333	5.010000	1.360000	0.000000	0.000000	0.000000
1334	-0.130000	2.300000	0.000000	0.000000	0.000000
1335	0.490000	2.480000	0.000000	0.000000	0.000000
1336	3.860000	2.250000	0.000000	0.000000	0.000000
1337	1.020000	1.720000	0.000000	0.000000	0.000000
1338	1.470000	1.430000	0.000000	0.000000	0.000000
1339	4.180000	1.530000	0.000000	0.000000	0.000000
1341	0.360000	2.560000	0.000000	0.000000	0.000000
1342	0.960000	2.590000	0.000000	0.000000	0.000000
1343	1.850000	1.390000	0.000000	0.000000	0.000000
1344	1.980000	1.080000	0.000000	0.000000	0.000000
1345	1.530000	2.040000	0.000000	0.000000	0.000000
1346	0.730000	2.110000	0.000000	0.000000	0.000000
1347	0.620000	2.370000	0.000000	0.000000	0.000000
1348	0.350000	2.460000	0.000000	0.000000	0.000000
1349	0.180000	2.740000	0.000000	0.000000	0.000000
1350	0.080000	2.880000	0.000000	0.000000	0.000000
1351	-0.010000	2.860000	0.000000	0.000000	0.000000
1352	2.280000	1.320000	0.000000	0.000000	0.000000
1353	1.060000	2.290000	0.000000	0.000000	0.000000
1354	3.420000	1.340000	0.000000	0.000000	0.000000
1355	2.010000	1.350000	0.000000	0.000000	0.000000
1356	1.650000	1.810000	0.000000	0.000000	0.000000
1357	1.420000	1.710000	0.000000	0.000000	0.000000
1358	-0.180000	3.080000	0.000000	0.000000	0.000000
1359	1.490000	1.760000	0.000000	0.000000	0.000000
1360	1.200000	2.320000	0.000000	0.000000	0.000000
1361	3.520000	3.920000	0.000000	0.000000	0.000000
1362	3.250000	3.380000	0.000000	0.000000	0.000000
1363	17.690000	1.440000	0.000000	0.000000	0.000000
1364	11.520000	2.380000	0.000000	0.000000	0.000000
1365	4.920000	2.700000	0.000000	0.000000	0.000000
1366	4.660000	2.270000	0.000000	0.000000	0.000000
1367	4.100000	2.640000	0.000000	0.000000	0.000000
1368	4.010000	2.980000	0.000000	0.000000	0.000000
1369	5.640000	1.220000	0.000000	0.000000	0.000000
1370	3.970000	2.910000	0.000000	0.000000	0.000000
1371	4.340000	2.500000	0.000000	0.000000	0.000000
1372	5.700000	2.670000	0.000000	0.000000	0.000000
1373	5.390000	3.080000	0.000000	0.000000	0.000000
1374	9.030000	1.380000	0.000000	0.000000	0.000000
1375	13.750000	1.620000	0.000000	0.000000	0.000000
1376	13.800000	1.500000	0.000000	0.000000	0.000000
1377	10.990000	1.610000	0.000000	0.000000	0.000000
1378	16.080000	2.130000	0.000000	0.000000	0.000000
1379	19.010000	1.930000	0.000000	0.000000	0.000000
1380	21.810000	1.060000	0.000000	0.000000	0.000000
1381	11.630000	1.160000	0.000000	0.000000	0.000000
1382	8.900000	3.550000	0.000000	0.000000	0.000000
1383	8.170000	2.120000	0.000000	0.000000	0.000000
1384	10.550000	2.210000	0.000000	0.000000	0.000000
1385	7.070000	1.880000	0.000000	0.000000	0.000000
1386	9.910000	1.300000	0.000000	0.000000	0.000000
1387	9.510000	2.020000	0.000000	0.000000	0.000000
1388	6.380000	2.180000	0.000000	0.000000	0.000000
1389	6.120000	3.170000	0.000000	0.000000	0.000000
1390	5.730000	1.660000	0.000000	0.000000	0.000000
1391	5.490000	1.710000	0.000000	0.000000	0.000000
1392	5.100000	2.340000	0.000000	0.000000	0.000000
1393	4.770000	2.720000	0.000000	0.000000	0.000000
1394	4.480000	2.140000	0.000000	0.000000	0.000000
1395	9.670000	1.480000	0.000000	0.000000	0.000000
1396	4.290000	2.510000	0.000000	0.000000	0.000000
1397	27.220000	1.310000	0.000000	0.000000	0.000000
1398	17.780000	1.620000	0.000000	0.000000	0.000000
1399	23.890000	1.870000	0.000000	0.000000	0.000000
1400	15.020000	1.830000	0.000000	0.000000	0.000000
1401	21.340000	1.580000	0.000000	0.000000	0.000000
1402	13.980000	1.200000	0.000000	0.000000	0.000000
1403	5.470000	3.610000	0.000000	0.000000	0.000000
1404	63.980000	1.430000	0.000000	0.000000	0.000000
1405	59.380000	1.480000	0.000000	0.000000	0.000000
1406	57.470000	2.150000	0.000000	0.000000	0.000000
1407	55.380000	1.360000	0.000000	0.000000	0.000000
1408	77.350000	1.120000	0.000000	0.000000	0.000000
1409	77.650000	1.100000	0.000000	0.000000	0.000000
1410	77.840000	1.320000	0.000000	0.000000	0.000000
1411	78.150000	2.500000	0.000000	0.000000	0.000000
1412	12.660000	1.780000	0.000000	0.000000	0.000000
1413	11.150000	2.220000	0.000000	0.000000	0.000000
1414	14.290000	1.680000	0.000000	0.000000	0.000000
1415	9.640000	1.730000	0.000000	0.000000	0.000000
1416	7.090000	2.720000	0.000000	0.000000	0.000000
1417	6.690000	2.570000	0.000000	0.000000	0.000000
1418	9.140000	1.590000	0.000000	0.000000	0.000000
1419	55.130000	1.230000	0.000000	0.000000	0.000000
1420	54.900000	1.910000	0.000000	0.000000	0.000000
1421	61.750000	2.640000	0.000000	0.000000	0.000000
1422	54.740000	3.540000	0.000000	0.000000	0.000000
1424	54.120000	2.160000	0.000000	0.000000	0.000000
1425	75.850000	1.900000	0.000000	0.000000	0.000000
1426	77.150000	1.050000	0.000000	0.000000	0.000000
1427	82.570000	0.900000	0.000000	0.000000	0.000000
1428	84.550000	1.440000	0.000000	0.000000	0.000000
1429	88.950000	1.640000	0.000000	0.000000	0.000000
1430	44.940000	1.810000	0.000000	0.000000	0.000000
1431	47.760000	1.780000	0.000000	0.000000	0.000000
1432	42.460000	1.500000	0.000000	0.000000	0.000000
1433	41.980000	1.500000	0.000000	0.000000	0.000000
1434	41.300000	2.830000	0.000000	0.000000	0.000000
1435	31.200000	1.490000	0.000000	0.000000	0.000000
1436	31.420000	1.670000	0.000000	0.000000	0.000000
1437	28.860000	1.920000	0.000000	0.000000	0.000000
1438	28.860000	3.500000	0.000000	0.000000	0.000000
1439	38.970000	4.000000	0.000000	0.000000	0.000000
1440	48.700000	2.450000	0.000000	0.000000	0.000000
1441	59.220000	1.680000	0.000000	0.000000	0.000000
1442	39.440000	1.890000	0.000000	0.000000	0.000000
1443	40.900000	2.070000	0.000000	0.000000	0.000000
1444	45.210000	1.700000	0.000000	0.000000	0.000000
1445	48.690000	1.810000	0.000000	0.000000	0.000000
1446	53.870000	2.970000	0.000000	0.000000	0.000000
1447	54.960000	1.640000	0.000000	0.000000	0.000000
1448	57.230000	1.770000	0.000000	0.000000	0.000000
1449	60.630000	1.520000	0.000000	0.000000	0.000000
1450	47.990000	1.670000	0.000000	0.000000	0.000000
1451	10.450000	1.200000	0.000000	0.000000	0.000000
1452	11.160000	1.160000	0.000000	0.000000	0.000000
1453	11.970000	1.370000	0.000000	0.000000	0.000000
1454	10.540000	1.120000	0.000000	0.000000	0.000000
1455	14.440000	1.060000	0.000000	0.000000	0.000000
1456	12.230000	1.600000	0.000000	0.000000	0.000000
1457	10.830000	1.200000	0.000000	0.000000	0.000000
1458	14.500000	1.580000	0.000000	0.000000	0.000000
1459	18.700000	2.310000	0.000000	0.000000	0.000000
1460	5.040000	2.060000	0.000000	0.000000	0.000000
1461	7.350000	1.160000	0.000000	0.000000	0.000000
1462	5.840000	1.300000	0.000000	0.000000	0.000000
1463	17.810000	1.350000	0.000000	0.000000	0.000000
1464	8.670000	1.570000	0.000000	0.000000	0.000000
1465	15.580000	1.260000	0.000000	0.000000	0.000000
1466	10.210000	1.870000	0.000000	0.000000	0.000000
1467	19.650000	1.650000	0.000000	0.000000	0.000000
1468	26.500000	1.310000	0.000000	0.000000	0.000000
1469	6.840000	1.590000	0.000000	0.000000	0.000000
1470	19.340000	1.930000	0.000000	0.000000	0.000000
1471	20.600000	2.550000	0.000000	0.000000	0.000000
1472	14.770000	3.160000	0.000000	0.000000	0.000000
1473	13.570000	1.890000	0.000000	0.000000	0.000000
1474	7.600000	2.300000	0.000000	0.000000	0.000000
1475	7.190000	1.610000	0.000000	0.000000	0.000000
1476	6.480000	1.770000	0.000000	0.000000	0.000000
1477	6.200000	2.790000	0.000000	0.000000	0.000000
1478	9.450000	2.210000	0.000000	0.000000	0.000000
1479	8.030000	1.420000	0.000000	0.000000	0.000000
1480	9.530000	1.600000	0.000000	0.000000	0.000000
1481	13.650000	1.770000	0.000000	0.000000	0.000000
1482	8.230000	1.610000	0.000000	0.000000	0.000000
1483	8.570000	2.220000	0.000000	0.000000	0.000000
1484	7.150000	0.950000	0.000000	0.000000	0.000000
1485	7.760000	1.240000	0.000000	0.000000	0.000000
1486	10.920000	1.380000	0.000000	0.000000	0.000000
1487	21.340000	2.000000	0.000000	0.000000	0.000000
1488	22.640000	1.870000	0.000000	0.000000	0.000000
1489	11.060000	1.520000	0.000000	0.000000	0.000000
1490	27.170000	1.030000	0.000000	0.000000	0.000000
1491	26.500000	1.070000	0.000000	0.000000	0.000000
1492	24.460000	1.740000	0.000000	0.000000	0.000000
1493	22.900000	0.880000	0.000000	0.000000	0.000000
1494	12.340000	1.480000	0.000000	0.000000	0.000000
1495	15.000000	1.310000	0.000000	0.000000	0.000000
1496	12.220000	1.660000	0.000000	0.000000	0.000000
1497	12.050000	2.690000	0.000000	0.000000	0.000000
1498	11.350000	1.540000	0.000000	0.000000	0.000000
1499	11.510000	1.120000	0.000000	0.000000	0.000000
1500	12.220000	1.500000	0.000000	0.000000	0.000000
1501	12.310000	1.460000	0.000000	0.000000	0.000000
1502	12.600000	1.700000	0.000000	0.000000	0.000000
1503	14.320000	1.200000	0.000000	0.000000	0.000000
1504	13.670000	1.980000	0.000000	0.000000	0.000000
1505	13.780000	2.010000	0.000000	0.000000	0.000000
1506	15.370000	1.400000	0.000000	0.000000	0.000000
1507	16.820000	2.080000	0.000000	0.000000	0.000000
1508	17.490000	1.700000	0.000000	0.000000	0.000000
1509	19.340000	1.640000	0.000000	0.000000	0.000000
1510	21.400000	1.700000	0.000000	0.000000	0.000000
1511	23.220000	1.830000	0.000000	0.000000	0.000000
1512	24.930000	1.170000	0.000000	0.000000	0.000000
1513	42.460000	1.600000	0.000000	0.000000	0.000000
1514	39.460000	2.290000	0.000000	0.000000	0.000000
1515	54.270000	1.370000	0.000000	0.000000	0.000000
1516	52.050000	1.400000	0.000000	0.000000	0.000000
1517	38.650000	2.220000	0.000000	0.000000	0.000000
1518	29.740000	2.261000	0.000000	0.000000	0.000000
1519	33.140000	3.160000	0.000000	0.000000	0.000000
1520	21.840000	2.090000	0.000000	0.000000	0.000000
1521	92.320000	1.450000	0.000000	0.000000	0.000000
1522	38.950000	3.470000	0.000000	0.000000	0.000000
1523	36.140000	2.060000	0.000000	0.000000	0.000000
1524	34.710000	1.770000	0.000000	0.000000	0.000000
1525	32.530000	4.000000	0.000000	0.000000	0.000000
1526	28.080000	4.660000	0.000000	0.000000	0.000000
1527	26.370000	1.900000	0.000000	0.000000	0.000000
1528	24.050000	1.410000	0.000000	0.000000	0.000000
1529	25.840000	3.000000	0.000000	0.000000	0.000000
1530	44.840000	1.660000	0.000000	0.000000	0.000000
1531	43.370000	1.430000	0.000000	0.000000	0.000000
1532	39.980000	2.530000	0.000000	0.000000	0.000000
1533	39.630000	2.440000	0.000000	0.000000	0.000000
1534	37.750000	3.260000	0.000000	0.000000	0.000000
1535	29.180000	6.300000	0.000000	0.000000	0.000000
1536	29.100000	3.080000	0.000000	0.000000	0.000000
1537	33.590000	2.180000	0.000000	0.000000	0.000000
1538	53.040000	3.980000	0.000000	0.000000	0.000000
1539	23.730000	1.920000	0.000000	0.000000	0.000000
1540	21.958000	2.302000	0.000000	0.000000	0.000000
1541	23.520000	1.650000	0.000000	0.000000	0.000000
1542	45.430000	6.470000	0.000000	0.000000	0.000000
1543	45.630000	1.800000	0.000000	0.000000	0.000000
1544	45.920000	3.190000	0.000000	0.000000	0.000000
1545	52.070000	2.970000	0.000000	0.000000	0.000000
1546	57.810000	1.660000	0.000000	0.000000	0.000000
1547	58.560000	1.300000	0.000000	0.000000	0.000000
1548	82.130000	1.700000	0.000000	0.000000	0.000000
1549	78.420000	1.110000	0.000000	0.000000	0.000000
1550	77.450000	1.500000	0.000000	0.000000	0.000000
1551	73.350000	1.850000	0.000000	0.000000	0.000000
1552	74.310000	3.210000	0.000000	0.000000	0.000000
1553	69.180000	1.290000	0.000000	0.000000	0.000000
1554	81.300000	1.260000	0.000000	0.000000	0.000000
1555	82.880000	1.860000	0.000000	0.000000	0.000000
1556	83.260000	1.330000	0.000000	0.000000	0.000000
1557	60.120000	1.260000	0.000000	0.000000	0.000000
1558	59.900000	1.510000	0.000000	0.000000	0.000000
1559	55.110000	2.130000	0.000000	0.000000	0.000000
1560	58.170000	1.700000	0.000000	0.000000	0.000000
1561	52.810000	1.570000	0.000000	0.000000	0.000000
1562	54.260000	1.650000	0.000000	0.000000	0.000000
1563	54.650000	1.590000	0.000000	0.000000	0.000000
1564	55.240000	1.740000	0.000000	0.000000	0.000000
1565	59.740000	1.750000	0.000000	0.000000	0.000000
1566	60.100000	2.200000	0.000000	0.000000	0.000000
1567	20.520000	3.720000	0.000000	0.000000	0.000000