[TITLE]
;;Project Title/Notes

[OPTIONS]
;;Option             Value
FLOW_UNITS           GPM
INFILTRATION         HORTON
FLOW_ROUTING         DYNWAVE
LINK_OFFSETS         DEPTH
MIN_SLOPE            0
ALLOW_PONDING        YES
SKIP_STEADY_STATE    NO

START_DATE           01/01/2014
START_TIME           00:00:00
REPORT_START_DATE    01/01/2014
REPORT_START_TIME    00:00:00
END_DATE             01/04/2014
END_TIME             06:00:00
SWEEP_START          01/01
SWEEP_END            12/31
DRY_DAYS             5.000000
REPORT_STEP          00:05:00
WET_STEP             00:05:00
DRY_STEP             01:00:00
ROUTING_STEP         0:00:30 

INERTIAL_DAMPING     NONE
NORMAL_FLOW_LIMITED  SLOPE
FORCE_MAIN_EQUATION  H-W
VARIABLE_STEP        0.75
LENGTHENING_STEP     10
MIN_SURFAREA         12.557
MAX_TRIALS           8
HEAD_TOLERANCE       0.005000
SYS_FLOW_TOL         5
LAT_FLOW_TOL         5
MINIMUM_STEP         0
THREADS              1

[EVAPORATION]
;;Data Source    Parameters
;;-------------- ----------------
CONSTANT         0.0
DRY_ONLY         NO

[RAINGAGES]
;;Name           Format    Interval SCF      Source    
;;-------------- --------- ------ ------ ----------
; New Raingage
RAINGAGE-1       VOLUME    0.250000 1.000000 TIMESERIES NEW2014         

[SUBCATCHMENTS]
;;Name           Rain Gage        Outlet           Area     %Imperv  Width    %Slope   CurbLen  SnowPack        
;;-------------- ---------------- ---------------- -------- -------- -------- -------- -------- ----------------
; New Subcatchment
SUB-10           RAINGAGE-1       B090020          1.000000 11.000000 111.000000 1.000000 1.000000                 

[SUBAREAS]
;;Subcatchment   N-Imperv   N-Perv     S-Imperv   S-Perv     PctZero    RouteTo    PctRouted 
;;-------------- ---------- ---------- ---------- ---------- ---------- ---------- ----------
SUB-10           1.000000   1.000000   1.000000   1.000000   25.000000  OUTLET    

[INFILTRATION]
;;Subcatchment   MaxRate    MinRate    Decay      DryTime    MaxInfil  
;;-------------- ---------- ---------- ---------- ---------- ----------
SUB-10           3.0        0.5        4          7          0         

[JUNCTIONS]
;;Name           Elevation  MaxDepth   InitDepth  SurDepth   Aponded   
;;-------------- ---------- ---------- ---------- ---------- ----------
B090005          925.650000 11.460000  0.000000   0.000000   0.000000  
B090010          927.010000 7.860000   0.000000   0.000000   0.000000  
B090015          927.590000 8.400000   0.000000   0.000000   0.000000  
B090020          928.970000 9.550000   0.000000   0.000000   0.000000  
B090025          930.010000 12.290000  0.000000   0.000000   0.000000  
B090030          930.900000 13.600000  0.000000   0.000000   0.000000  
B090035          932.170000 12.290000  0.000000   0.000000   0.000000  
B090040          933.370000 11.800000  0.000000   0.000000   0.000000  
B090045          935.800000 8.700000   0.000000   0.000000   0.000000  
B090050          937.550000 7.550000   0.000000   0.000000   0.000000  
B090055          941.040000 7.560000   0.000000   0.000000   0.000000  
B090060          942.750000 2.280000   0.000000   0.000000   0.000000  
B090065          944.370000 2.010000   0.000000   0.000000   0.000000  
B091345          940.870000 5.930000   0.000000   0.000000   0.000000  
B091350          942.200000 6.800000   0.000000   0.000000   0.000000  
B091355          942.740000 7.760000   0.000000   0.000000   0.000000  
B091360          945.980000 6.020000   0.000000   0.000000   0.000000  
B091361          948.050000 5.000000   0.000000   0.000000   0.000000  
B091365          949.050000 3.840000   0.000000   0.000000   0.000000  
B091370          949.160000 3.080000   0.000000   0.000000   0.000000  
B091375          949.320000 3.580000   0.000000   0.000000   0.000000  
B091380          949.740000 3.810000   0.000000   0.000000   0.000000  
B091385          951.550000 5.380000   0.000000   0.000000   0.000000  
B091390          955.980000 4.520000   0.000000   0.000000   0.000000  
B091395          960.180000 5.150000   0.000000   0.000000   0.000000  
B091400          964.320000 4.650000   0.000000   0.000000   0.000000  
B091405          967.000000 5.080000   0.000000   0.000000   0.000000  
B091410          968.200000 10.930000  0.000000   0.000000   0.000000  
B091415          971.070000 8.510000   0.000000   0.000000   0.000000  
B091420          975.180000 6.590000   0.000000   0.000000   0.000000  
B091425          978.760000 6.230000   0.000000   0.000000   0.000000  
B091430          982.770000 6.960000   0.000000   0.000000   0.000000  
B091435          983.380000 6.010000   0.000000   0.000000   0.000000  
B091440          984.140000 10.250000  0.000000   0.000000   0.000000  
B091445          987.530000 5.770000   0.000000   0.000000   0.000000  
B091450          988.090000 7.740000   0.000000   0.000000   0.000000  
B091455          989.650000 6.220000   0.000000   0.000000   0.000000  
B091475          984.570000 6.220000   0.000000   0.000000   0.000000  
B091480          985.000000 4.200000   0.000000   0.000000   0.000000  
B091485          988.430000 3.540000   0.000000   0.000000   0.000000  
B091490          988.610000 4.390000   0.000000   0.000000   0.000000  
B091495          995.040000 6.770000   0.000000   0.000000   0.000000  
B091510          969.310000 11.410000  0.000000   0.000000   0.000000  
B091515          970.210000 10.790000  0.000000   0.000000   0.000000  
B091520          971.040000 13.820000  0.000000   0.000000   0.000000  
B091525          971.760000 10.280000  0.000000   0.000000   0.000000  
B091530          972.940000 4.850000   0.000000   0.000000   0.000000  
B091535          974.630000 4.040000   0.000000   0.000000   0.000000  
B091540          980.360000 5.070000   0.000000   0.000000   0.000000  
B091545          980.360000 3.740000   0.000000   0.000000   0.000000  
B091550          987.440000 5.550000   0.000000   0.000000   0.000000  
B091555          990.710000 7.100000   0.000000   0.000000   0.000000  
B091560          990.990000 6.790000   0.000000   0.000000   0.000000  
B091565          991.790000 7.440000   0.000000   0.000000   0.000000  
B091650          988.950000 3.500000   0.000000   0.000000   0.000000  
B091655          993.490000 3.940000   0.000000   0.000000   0.000000  
B091660          996.000000 5.920000   0.000000   0.000000   0.000000  
B091665          997.680000 4.000000   0.000000   0.000000   0.000000  
B091675          985.140000 4.740000   0.000000   0.000000   0.000000  
B091680          986.500000 4.900000   0.000000   0.000000   0.000000  
B091685          993.920000 6.450000   0.000000   0.000000   0.000000  
B091690          998.880000 6.000000   0.000000   0.000000   0.000000  
B091695          1003.720000 6.000000   0.000000   0.000000   0.000000  
B091705          988.380000 5.870000   0.000000   0.000000   0.000000  
B091710          988.650000 4.770000   0.000000   0.000000   0.000000  
B091715          975.300000 6.000000   0.000000   0.000000   0.000000  
B091720          985.040000 5.990000   0.000000   0.000000   0.000000  
B091725          994.000000 6.000000   0.000000   0.000000   0.000000  
B091730          951.040000 4.230000   0.000000   0.000000   0.000000  
B091735          953.590000 2.190000   0.000000   0.000000   0.000000  
B091740          954.290000 4.310000   0.000000   0.000000   0.000000  
B091745          954.590000 5.040000   0.000000   0.000000   0.000000  
B091750          955.460000 6.740000   0.000000   0.000000   0.000000  
B091755          967.710000 8.590000   0.000000   0.000000   0.000000  
B091760          968.270000 18.730000  0.000000   0.000000   0.000000  
B091765          969.360000 16.850000  0.000000   0.000000   0.000000  
B091770          969.670000 17.590000  0.000000   0.000000   0.000000  
B091775          970.420000 13.590000  0.000000   0.000000   0.000000  
B091780          971.310000 12.790000  0.000000   0.000000   0.000000  
B091785          972.110000 8.880000   0.000000   0.000000   0.000000  
B091790          977.150000 5.580000   0.000000   0.000000   0.000000  
B091795          983.540000 5.950000   0.000000   0.000000   0.000000  
B091800          987.550000 5.970000   0.000000   0.000000   0.000000  
B091805          980.940000 6.000000   0.000000   0.000000   0.000000  
B091810          982.520000 6.000000   0.000000   0.000000   0.000000  
B091815          978.640000 4.290000   0.000000   0.000000   0.000000  
B091820          973.710000 5.820000   0.000000   0.000000   0.000000  
B091825          979.000000 5.420000   0.000000   0.000000   0.000000  
B091830          987.000000 6.240000   0.000000   0.000000   0.000000  
B091835          996.000000 6.490000   0.000000   0.000000   0.000000  
B091840          997.000000 5.980000   0.000000   0.000000   0.000000  
B091845          959.180000 5.360000   0.000000   0.000000   0.000000  
B091850          962.120000 14.280000  0.000000   0.000000   0.000000  
B091855          965.030000 4.920000   0.000000   0.000000   0.000000  
B091860          966.590000 4.550000   0.000000   0.000000   0.000000  
B091865          968.350000 4.710000   0.000000   0.000000   0.000000  
B091870          973.530000 5.290000   0.000000   0.000000   0.000000  
B091875          991.580000 5.380000   0.000000   0.000000   0.000000  
B091880          998.550000 4.630000   0.000000   0.000000   0.000000  
B091885          999.970000 4.570000   0.000000   0.000000   0.000000  
B091890          982.610000 6.000000   0.000000   0.000000   0.000000  
B091895          974.920000 4.630000   0.000000   0.000000   0.000000  
B091900          967.160000 6.020000   0.000000   0.000000   0.000000  
B091905          979.970000 7.650000   0.000000   0.000000   0.000000  
B091910          995.440000 6.000000   0.000000   0.000000   0.000000  
B091915          982.620000 5.000000   0.000000   0.000000   0.000000  
B091920          991.070000 4.000000   0.000000   0.000000   0.000000  
B091925          984.630000 8.460000   0.000000   0.000000   0.000000  
B091930          955.700000 6.500000   0.000000   0.000000   0.000000  
B091935          962.770000 6.000000   0.000000   0.000000   0.000000  
B091940          976.600000 7.620000   0.000000   0.000000   0.000000  
B091945          977.660000 9.130000   0.000000   0.000000   0.000000  
B091960          958.210000 12.510000  0.000000   0.000000   0.000000  
B091965          967.050000 5.990000   0.000000   0.000000   0.000000  
B091970          976.930000 8.600000   0.000000   0.000000   0.000000  
B091975          977.900000 7.410000   0.000000   0.000000   0.000000  
B091980          982.900000 8.040000   0.000000   0.000000   0.000000  
B091985          991.900000 4.900000   0.000000   0.000000   0.000000  
B091990          997.000000 3.980000   0.000000   0.000000   0.000000  
B091995          931.390000 6.550000   0.000000   0.000000   0.000000  
B092000          937.300000 3.600000   0.000000   0.000000   0.000000  
B092005          941.450000 4.620000   0.000000   0.000000   0.000000  
B092010          953.550000 5.000000   0.000000   0.000000   0.000000  
B092015          961.900000 4.100000   0.000000   0.000000   0.000000  
B092020          966.710000 7.390000   0.000000   0.000000   0.000000  
B092025          967.010000 4.710000   0.000000   0.000000   0.000000  
B092030          974.000000 6.000000   0.000000   0.000000   0.000000  
B092035          981.070000 9.930000   0.000000   0.000000   0.000000  
B092040          981.480000 5.210000   0.000000   0.000000   0.000000  
B092045          987.600000 4.900000   0.000000   0.000000   0.000000  
B092050          991.280000 10.150000  0.000000   0.000000   0.000000  
B092055          991.660000 5.630000   0.000000   0.000000   0.000000  
B092060          993.120000 7.570000   0.000000   0.000000   0.000000  
B092065          1002.420000 6.550000   0.000000   0.000000   0.000000  
B092070          1021.680000 3.540000   0.000000   0.000000   0.000000  
B092075          1024.790000 5.630000   0.000000   0.000000   0.000000  
B092080          0.000000   0.999000   0.000000   0.000000   0.000000  
B092085          0.000000   0.999000   0.000000   0.000000   0.000000  
B092090          0.000000   0.999000   0.000000   0.000000   0.000000  
B092095          942.040000 4.460000   0.000000   0.000000   0.000000  
B092100          946.700000 4.100000   0.000000   0.000000   0.000000  
B092105          950.020000 7.480000   0.000000   0.000000   0.000000  
B092110          984.900000 14.320000  0.000000   0.000000   0.000000  
B092115          993.550000 5.890000   0.000000   0.000000   0.000000  
B092120          0.000000   0.999000   0.000000   0.000000   0.000000  
B092125          0.000000   0.999000   0.000000   0.000000   0.000000  
B092130          993.120000 7.570000   0.000000   0.000000   0.000000  
B092135          0.000000   0.999000   0.000000   0.000000   0.000000  
B092140          0.000000   0.999000   0.000000   0.000000   0.000000  
B092145          0.000000   0.999000   0.000000   0.000000   0.000000  
B092150          0.000000   0.999000   0.000000   0.000000   0.000000  
B092160          1003.000000 6.000000   0.000000   0.000000   0.000000  
B092165          1015.300000 4.500000   0.000000   0.000000   0.000000  
B092170          1000.000000 4.880000   0.000000   0.000000   0.000000  
B092175          1020.000000 5.660000   0.000000   0.000000   0.000000  
B092180          1028.600000 5.400000   0.000000   0.000000   0.000000  
B092185          993.430000 3.870000   0.000000   0.000000   0.000000  
B092190          962.660000 5.140000   0.000000   0.000000   0.000000  
B092195          971.000000 4.400000   0.000000   0.000000   0.000000  
B092330          938.570000 16.580000  0.000000   0.000000   0.000000  
B092413          946.850000 3.150000   0.000000   0.000000   0.000000  
B092415          947.930000 5.000000   0.000000   0.000000   0.000000  
B092416          948.360000 5.280000   0.000000   0.000000   0.000000  
B092418          948.360000 1.640000   0.000000   0.000000   0.000000  
B092420          952.070000 5.130000   0.000000   0.000000   0.000000  
B093240          955.630000 6.970000   0.000000   0.000000   0.000000  
B093245          964.600000 4.600000   0.000000   0.000000   0.000000  
B093250          968.650000 5.150000   0.000000   0.000000   0.000000  
B093255          970.750000 6.010000   0.000000   0.000000   0.000000  
B093260          971.740000 6.580000   0.000000   0.000000   0.000000  
B093265          975.000000 9.300000   0.000000   0.000000   0.000000  
B093275          978.000000 6.190000   0.000000   0.000000   0.000000  
B093280          979.220000 4.930000   0.000000   0.000000   0.000000  
B093285          982.080000 9.550000   0.000000   0.000000   0.000000  
B093290          982.440000 8.960000   0.000000   0.000000   0.000000  
B093295          983.090000 7.400000   0.000000   0.000000   0.000000  
B093300          983.700000 6.950000   0.000000   0.000000   0.000000  
B093305          984.470000 6.660000   0.000000   0.000000   0.000000  
B093310          0.000000   0.999000   0.000000   0.000000   0.000000  
B093345          972.660000 9.150000   0.000000   0.000000   0.000000  
B093350          973.980000 6.100000   0.000000   0.000000   0.000000  
B096045          939.000000 4.100000   0.000000   0.000000   0.000000  
B096050          943.900000 4.100000   0.000000   0.000000   0.000000  
B096055          958.100000 6.900000   0.000000   0.000000   0.000000  
B096060          962.000000 7.090000   0.000000   0.000000   0.000000  
B096065          967.000000 8.000000   0.000000   0.000000   0.000000  
B096370          988.050000 7.690000   0.000000   0.000000   0.000000  
B096375          986.640000 5.840000   0.000000   0.000000   0.000000  
B100565          922.320000 10.810000  0.000000   0.000000   0.000000  
B100570          924.330000 10.600000  0.000000   0.000000   0.000000  
B100575          919.550000 10.450000  0.000000   0.000000   0.000000  
B100580          920.540000 10.460000  0.000000   0.000000   0.000000  
B100585          920.990000 6.250000   0.000000   0.000000   0.000000  
B100590          921.190000 7.170000   0.000000   0.000000   0.000000  
B100595          921.350000 5.920000   0.000000   0.000000   0.000000  
B100600          921.730000 5.920000   0.000000   0.000000   0.000000  
B100605          922.090000 4.500000   0.000000   0.000000   0.000000  
B100610          922.700000 7.060000   0.000000   0.000000   0.000000  
B100615          930.510000 5.490000   0.000000   0.000000   0.000000  
B100620          931.970000 3.830000   0.000000   0.000000   0.000000  
B100625          933.070000 2.730000   0.000000   0.000000   0.000000  
B100630          935.630000 6.870000   0.000000   0.000000   0.000000  
B100635          937.000000 6.500000   0.000000   0.000000   0.000000  
B100650          934.250000 4.950000   0.000000   0.000000   0.000000  
B100655          941.720000 6.980000   0.000000   0.000000   0.000000  
B100685          930.310000 3.190000   0.000000   0.000000   0.000000  
B100690          938.820000 11.180000  0.000000   0.000000   0.000000  
B100695          938.820000 2.680000   0.000000   0.000000   0.000000  
B100700          953.440000 5.450000   0.000000   0.000000   0.000000  
B100705          954.220000 9.390000   0.000000   0.000000   0.000000  
B100710          943.800000 3.200000   0.000000   0.000000   0.000000  
B100715          948.800000 3.200000   0.000000   0.000000   0.000000  
B100720          943.800000 6.200000   0.000000   0.000000   0.000000  
B100725          948.800000 1.200000   0.000000   0.000000   0.000000  
; New Junction
JCT-12           0.000000   0.000000   0.000000   0.000000   0.000000  
; New Junction
JCT-14           0.000000   0.000000   0.000000   0.000000   0.000000  
; New Junction
JCT-16           0.000000   0.000000   0.000000   0.000000   0.000000  
PRIVATE          0.000000   0.999000   0.000000   0.000000   0.000000  

[OUTFALLS]
;;Name           Elevation  Type       Stage Data       Gated    Route To        
;;-------------- ---------- ---------- ---------------- -------- ----------------
B100560          921.900000 FREE                        NO                       

[CONDUITS]
;;Name           From Node        To Node          Length     Roughness  InOffset   OutOffset  InitFlow   MaxFlow   
;;-------------- ---------------- ---------------- ---------- ---------- ---------- ---------- ---------- ----------
B090005B100570   B090005          B100570          169.343136 0.011000   0.000000   0.100000   0.000000   0.000000  
B090010B090005   B090010          B090005          203.518390 0.011000   0.000000   0.100000   0.000000   0.000000  
B090015B090010   B090015          B090010          262.953148 0.011000   0.000000   0.100000   0.000000   0.000000  
B090020B090015   B090020          B090015          297.813343 0.011000   0.000000   0.100000   0.000000   0.000000  
B090025B090020   B090025          B090020          374.724911 0.011000   0.000000   0.100000   0.000000   0.000000  
B090030B090025   B090030          B090025          326.586925 0.011000   0.000000   0.100000   0.000000   0.000000  
B090035B090030   B090035          B090030          243.496774 0.011000   0.000000   0.100000   0.000000   0.000000  
B090040B090035   B090040          B090035          397.014016 0.011000   0.000000   0.100000   0.000000   0.000000  
B090045B090040   B090045          B090040          395.376038 0.011000   0.000000   0.100000   0.000000   0.000000  
B090050B090045   B090050          B090045          256.069739 0.011000   0.000000   0.000000   0.000000   0.000000  
B090055B090050   B090055          B090050          293.312813 0.011000   0.000000   1.650000   0.000000   0.000000  
B090060B090055   B090060          B090055          363.325441 0.011000   0.000000   0.000000   0.000000   0.000000  
B090065B090060   B090065          B090060          320.363595 0.011000   0.000000   0.000000   0.000000   0.000000  
B090070B090065   JCT-12           B090065          247.692597 0.011000   945.730000 0.000000   0.000000   0.000000  
B091345B090055   B091345          B090055          351.143609 0.011000   0.000000   0.100000   0.000000   0.000000  
B091350B091345   B091350          B091345          225.544630 0.011000   0.000000   0.100000   0.000000   0.000000  
B091355B091350   B091355          B091350          120.404397 0.011000   0.000000   0.100000   0.000000   0.000000  
B091360B091355   B091360          B091355          253.040071 0.011000   0.000000   0.060000   0.000000   0.000000  
B091361B091360   B091361          B091360          55.389141  0.011000   0.000000   0.000000   0.000000   0.000000  
B091365B091361   B091365          B091361          20.486103  0.011000   0.000000   0.000000   0.000000   0.000000  
B091370B091365   B091370          B091365          50.950144  0.011000   -949.160000 0.000000   0.000000   0.000000  
B091375B091370   B091375          B091370          58.424784  0.011000   0.000000   0.000000   0.000000   0.000000  
B091380B091375   B091380          B091375          83.360497  0.011000   0.000000   0.000000   0.000000   0.000000  
B091385B091380   B091385          B091380          309.468259 0.011000   0.000000   0.000000   0.000000   0.000000  
B091390B091385   B091390          B091385          327.043846 0.011000   0.000000   0.000000   0.000000   0.000000  
B091395B091390   B091395          B091390          338.132406 0.011000   0.000000   0.000000   0.000000   0.000000  
B091400B091395   B091400          B091395          338.338420 0.011000   0.000000   0.000000   0.000000   0.000000  
B091405B091400   B091405          B091400          257.499646 0.011000   0.000000   0.000000   0.000000   0.000000  
B091410B091405   B091410          B091405          340.123145 0.011000   0.000000   0.000000   0.000000   0.000000  
B091415B091410   B091415          B091410          204.814431 0.011000   0.000000   1.870000   0.000000   0.000000  
B091420B091415   B091420          B091415          239.826523 0.011000   0.000000   0.000000   0.000000   0.000000  
B091425B091420   B091425          B091420          207.131519 0.011000   0.000000   0.000000   0.000000   0.000000  
B091430B091425   B091430          B091425          277.394809 0.011000   0.000000   0.000000   0.000000   0.000000  
B091435B091430   B091435          B091430          196.974477 0.011000   0.000000   0.000000   0.000000   0.000000  
B091440B091435   B091440          B091435          298.456257 0.011000   0.000000   0.000000   0.000000   0.000000  
B091445B091440   B091445          B091440          307.097042 0.011000   0.000000   2.040000   0.000000   0.000000  
B091450B091445   B091450          B091445          150.811081 0.011000   0.000000   0.000000   0.000000   0.000000  
B091455B091450   B091455          B091450          146.582276 0.011000   0.000000   0.000000   0.000000   0.000000  
B091475B091440   B091475          B091440          227.360388 0.011000   0.000000   0.000000   0.000000   0.000000  
B091480B091475   B091480          B091475          136.200873 0.011000   0.000000   0.000000   0.000000   0.000000  
B091485B091480   B091485          B091480          205.971843 0.011000   0.000000   2.440000   0.000000   0.000000  
B091490B091485   B091490          B091485          54.923461  0.011000   0.000000   0.000000   0.000000   0.000000  
B091495B091490   B091495          B091490          244.840298 0.011000   0.000000   0.000000   0.000000   0.000000  
B091510B091410   B091510          B091410          308.244484 0.011000   0.000000   0.000000   0.000000   0.000000  
B091515B091510   B091515          B091510          219.895561 0.011000   0.000000   0.000000   0.000000   0.000000  
B091520B091515   B091520          B091515          214.743960 0.011000   0.000000   0.000000   0.000000   0.000000  
B091525B091520   B091525          B091520          173.190826 0.011000   0.000000   0.000000   0.000000   0.000000  
B091530B091525   B091530          B091525          257.860809 0.011000   0.000000   0.000000   0.000000   0.000000  
B091535B091530   B091535          B091530          118.137158 0.011000   0.000000   0.000000   0.000000   0.000000  
B091540B091545   B091540          B091545          65.116296  0.011000   0.000000   -1.420000  0.000000   0.000000  
B091545B091535   B091545          B091535          307.450988 0.011000   -1.420000  0.000000   0.000000   0.000000  
B091550B091545   B091550          B091545          303.033591 0.011000   0.000000   -1.420000  0.000000   0.000000  
B091555B091550   B091555          B091550          225.105920 0.011000   0.000000   2.360000   0.000000   0.000000  
B091560B091555   B091560          B091555          85.395834  0.011000   0.000000   0.000000   0.000000   0.000000  
B091565B091560   B091565          B091560          189.197359 0.011000   6.000000   0.000000   0.000000   0.000000  
B091650B091485   B091650          B091485          76.912606  0.011000   0.000000   0.000000   0.000000   0.000000  
B091655B091650   B091655          B091650          136.943355 0.011000   0.000000   0.000000   0.000000   0.000000  
B091660B091655   B091660          B091655          226.449924 0.011000   0.000000   0.000000   0.000000   0.000000  
B091665B091660   B091665          B091660          83.960772  0.011000   0.000000   0.000000   0.000000   0.000000  
B091675B091480   B091675          B091480          144.090211 0.011000   0.000000   0.000000   0.000000   0.000000  
B091680B091675   B091680          B091675          52.765026  0.011000   0.000000   0.240000   0.000000   0.000000  
B091685B091680   B091685          B091680          326.866381 0.011000   0.000000   0.000000   0.000000   0.000000  
B091690B091685   B091690          B091685          54.028416  0.011000   0.000000   0.000000   0.000000   0.000000  
B091695B091690   B091695          B091690          294.706385 0.011000   0.000000   0.000000   0.000000   0.000000  
B091705B091675   B091705          B091675          320.511415 0.011000   0.000000   0.000000   0.000000   0.000000  
B091710B091540   B091710          B091540          319.216540 0.011000   0.000000   0.000000   0.000000   0.000000  
B091715B091530   B091715          B091530          159.254800 0.011000   0.000000   0.000000   0.000000   0.000000  
B091720B091715   B091720          B091715          285.693045 0.011000   0.000000   0.000000   0.000000   0.000000  
B091725B091720   B091725          B091720          251.347170 0.011000   0.000000   0.000000   0.000000   0.000000  
B091730B091365   B091730          B091365          319.333561 0.011000   0.000000   0.000000   0.000000   0.000000  
B091735B091730   B091735          B091730          79.589344  0.011000   0.000000   2.260000   0.000000   0.000000  
B091740B091735   B091740          B091735          122.879366 0.011000   0.000000   0.000000   0.000000   0.000000  
B091745B091740   B091745          B091740          70.121348  0.011000   0.000000   0.000000   0.000000   0.000000  
B091750B091745   B091750          B091745          154.632679 0.011000   0.000000   0.000000   0.000000   0.000000  
B091755B091750   B091755          B091750          200.002173 0.011000   0.000000   0.000000   0.000000   0.000000  
B091760B091755   B091760          B091755          139.996036 0.011000   0.000000   0.000000   0.000000   0.000000  
B091765B091760   B091765          B091760          271.599620 0.011000   0.000000   0.000000   0.000000   0.000000  
B091770B091765   B091770          B091765          78.197162  0.011000   0.000000   0.000000   0.000000   0.000000  
B091775B091770   B091775          B091770          187.004398 0.011000   0.000000   0.000000   0.000000   0.000000  
B091780B091775   B091780          B091775          223.198748 0.011000   0.000000   0.000000   0.000000   0.000000  
B091785B091780   B091785          B091780          201.295635 0.011000   0.000000   0.000000   0.000000   0.000000  
B091790B091785   B091790          B091785          258.551803 0.011000   0.000000   4.010000   0.000000   0.000000  
B091795B091790   B091795          B091790          475.284694 0.011000   0.000000   0.000000   0.000000   0.000000  
B091800B091795   B091800          B091795          86.555958  0.011000   0.000000   0.000000   0.000000   0.000000  
B091805B091520   B091805          B091520          274.870854 0.011000   0.000000   7.820000   0.000000   0.000000  
B091810B091805   B091810          B091805          207.413004 0.011000   0.000000   0.000000   0.000000   0.000000  
B091815B091525   B091815          B091525          187.211197 0.011000   0.000000   6.240000   0.000000   0.000000  
B091820B091415   B091820          B091415          73.404112  0.011000   0.000000   0.260000   0.000000   0.000000  
B091825B091820   B091825          B091820          211.167215 0.011000   0.000000   0.000000   0.000000   0.000000  
B091830B091825   B091830          B091825          238.437387 0.011000   0.000000   0.000000   0.000000   0.000000  
B091835B091830   B091835          B091830          244.920212 0.011000   0.000000   0.000000   0.000000   0.000000  
B091840B091830   B091840          B091830          231.136888 0.011000   -997.000000 -987.000000 0.000000   0.000000  
B091845B091750   B091845          B091750          381.936433 0.011000   0.000000   0.000000   0.000000   0.000000  
B091850B091845   B091850          B091845          387.989080 0.011000   0.000000   0.000000   0.000000   0.000000  
B091855B091850   B091855          B091850          229.343368 0.011000   0.000000   0.000000   0.000000   0.000000  
B091860B091855   B091860          B091855          165.103747 0.011000   0.000000   0.000000   0.000000   0.000000  
B091865B091860   B091865          B091860          200.917448 0.011000   0.000000   0.000000   0.000000   0.000000  