[OPTIONS]
;Option and Files Scenario Set: BASE
FLOW_UNITS		CFS
INFILTRATION		HORTON
FLOW_ROUTING		DYNWAVE
LINK_OFFSETS		DEPTH
MIN_SLOPE		0.000000
ALLOW_PONDING		NO
SKIP_STEADY_STATE 	NO
IGNORE_RAINFALL		NO
IGNORE_SNOWMELT		NO
IGNORE_GROUNDWATER	NO
IGNORE_QUALITY		NO

START_DATE		01/01/2002
START_TIME		24:00:00
REPORT_START_DATE	01/01/2002
REPORT_START_TIME	00:00
END_DATE		01/01/2002
END_TIME		216:00:00
SWEEP_START		01/01
SWEEP_END		12/31
DRY_DAYS		5.000000
REPORT_STEP		00:05:00
WET_STEP		01:00:00
DRY_STEP		23:00:00
ROUTING_STEP		300

INERTIAL_DAMPING	NONE
NORMAL_FLOW_LIMITED	BOTH
FORCE_MAIN_EQUATION	H-W
VARIABLE_STEP		0.750000
LENGTHENING_STEP	0
MIN_SURFAREA		0.000000
MINIMUM_STEP		0.5


[FILES]

[RAINGAGES]

[HYDROGRAPHS]

[TEMPERATURE]

[ADJUSTMENTS]

[SUBCATCHMENTS]

[SUBAREAS]

[INFILTRATION]

[AQUIFERS]

[GROUNDWATER]

[GWF]

[SNOWPACKS]

[JUNCTIONS]
; for BO
10	4892.001953	10.000000	0.000000	0.000000	0.000000
; New Manhole
100	4918.500000	17.090000	0.000000	0.000000	0.000000
; New Manhole for BO
1000	4570.000000	10.000000	0.000000	0.000000	0.000000
; Future Stoneridge Manhole
100018	5184.891224	27.184776	0.000000	0.000000	0.000000
; Future Stoneridge Manhole
100020	5185.833326	24.166674	0.000000	0.000000	0.000000
; Future Stoneridge Manhole
100022	5186.712123	29.386877	0.000000	0.000000	0.000000
; Future Stoneridge Manhole
100024	5187.562044	25.409956	0.000000	0.000000	0.000000
; Future Stoneridge Manhole
100026	5188.586581	21.688419	0.000000	0.000000	0.000000
; Future Stoneridge Manhole
100028	5204.543401	23.181599	0.000000	0.000000	0.000000
; Future Stoneridge Manhole
100030	5229.720001	20.275999	0.000000	0.000000	0.000000
; Future Stoneridge Manhole
100032	5246.435801	23.336199	0.000000	0.000000	0.000000
; Future Stoneridge Manhole
100034	5247.525926	14.197074	0.000000	0.000000	0.000000
; Future Stoneridge Manhole
100036	5266.497626	22.149374	0.000000	0.000000	0.000000
; Future Stoneridge Manhole
100038	5267.636135	21.166865	0.000000	0.000000	0.000000
; Future Stoneridge Manhole
100040	5283.592955	26.407045	0.000000	0.000000	0.000000
; Future Stoneridge Manhole
100042	5300.879480	25.497520	0.000000	0.000000	0.000000
; New Manhole for BO
1002	4574.000000	10.000000	0.000000	0.000000	0.000000
; Future Yavapai Hills Manhole
100372	5352.915250	9.568750	0.000000	0.000000	0.000000
; Future Yavapai Hills Manhole
100374	5416.015150	4.681850	0.000000	0.000000	0.000000
; New Manhole for BO
1004	4578.000000	10.000000	0.000000	0.000000	0.000000
; Future Prescott Valley Manhole
100548	4938.222733	11.232267	0.000000	0.000000	0.000000
; Future Prescott Valley Manhole
100550	4939.763648	23.498352	0.000000	0.000000	0.000000
; Future Prescott Valley Manhole
100552	4940.637405	3.608595	0.000000	0.000000	0.000000
; Future Prescott Valley Manhole
100554	4941.500916	8.499084	0.000000	0.000000	0.000000
; Future Prescott Valley Manhole
100556	4957.057666	32.942334	0.000000	0.000000	0.000000
; Future Prescott Valley Manhole
100558	4957.931424	12.068576	0.000000	0.000000	0.000000
; Future Prescott Valley Manhole
100560	4958.751467	10.346533	0.000000	0.000000	0.000000
; Future Prescott Valley Manhole
100562	4959.519193	6.966807	0.000000	0.000000	0.000000
; Future Prescott Valley Manhole
100564	4960.279800	5.529200	0.000000	0.000000	0.000000
; Future Prescott Valley Manhole
100566	4961.135259	8.864741	0.000000	0.000000	0.000000
; Future Prescott Valley Manhole
100568	4962.085985	7.914015	0.000000	0.000000	0.000000
; Future Prescott Valley Manhole
100570	4962.920397	7.079603	0.000000	0.000000	0.000000
; Future Prescott Valley Manhole
100572	4963.697085	11.018915	0.000000	0.000000	0.000000
; Future Prescott Valley Manhole
100574	4964.830932	8.291068	0.000000	0.000000	0.000000
; Future Prescott Valley Manhole
100590	4997.505129	8.466871	0.000000	0.000000	0.000000
; Future Prescott Valley Manhole
100592	4998.202992	12.202008	0.000000	0.000000	0.000000
; Future Prescott Valley Manhole
100594	4998.663921	13.454079	0.000000	0.000000	0.000000
; Future Prescott Valley Manhole
100596	4999.059450	15.416550	0.000000	0.000000	0.000000
; Future Prescott Valley Manhole
100598	4999.472177	4.185823	0.000000	0.000000	0.000000
; Future Prescott Valley Manhole
100600	5004.564337	14.028663	0.000000	0.000000	0.000000
; Future Prescott Valley Manhole
100602	5004.949564	18.048436	0.000000	0.000000	0.000000
; Future Prescott Valley Manhole
100604	5005.369183	4.630817	0.000000	0.000000	0.000000
; Future Prescott Valley Manhole
100606	5010.000000	40.000000	0.000000	0.000000	0.000000
; Future Prescott Valley Manhole
100608	5015.000000	31.125000	0.000000	0.000000	0.000000
; Future Stoneridge Manhole
100756	5173.726847	3.254153	0.000000	0.000000	0.000000
; Future Stoneridge Manhole
100758	5197.179927	8.642073	0.000000	0.000000	0.000000
; Future Stoneridge Manhole
100760	5219.312807	8.301193	0.000000	0.000000	0.000000
; Future Stoneridge Manhole
100762	5219.894682	5.705318	0.000000	0.000000	0.000000
; Future Stoneridge Manhole
100764	5275.601402	9.695598	0.000000	0.000000	0.000000
; Future Stoneridge Manhole
100766	5285.297312	4.514688	0.000000	0.000000	0.000000
; Future Stoneridge Manhole
100776	5226.079952	4.846048	0.000000	0.000000	0.000000
; Future Stoneridge Manhole
100778	5232.671152	7.328848	0.000000	0.000000	0.000000
; Future Stoneridge Manhole
100780	5233.642662	11.670338	0.000000	0.000000	0.000000
; Future Stoneridge Manhole
100782	5254.232462	5.767538	0.000000	0.000000	0.000000
; Future Stoneridge Manhole
100784	5264.884782	6.578218	0.000000	0.000000	0.000000
; Future Stoneridge Manhole
100786	5270.925768	20.826232	0.000000	0.000000	0.000000
; Future Stoneridge Manhole
100792	5275.519057	63.209943	0.000000	0.000000	0.000000
; Future Stoneridge Manhole
100794	5273.999212	13.265788	0.000000	0.000000	0.000000
; Future Stoneridge Manhole
100796	5245.042292	7.614708	0.000000	0.000000	0.000000
; Future Stoneridge Manhole
100798	5211.667062	5.606938	0.000000	0.000000	0.000000
; Future Stoneridge Manhole
100800	5175.888902	6.945098	0.000000	0.000000	0.000000
; Future Stoneridge Manhole
100802	5266.365622	19.953378	0.000000	0.000000	0.000000
; Future Stoneridge Manhole
100804	5267.078158	19.597842	0.000000	0.000000	0.000000
; Temp lift station
100818	5155.140000	19.860000	0.000000	1000.000000	0.000000
; Castle Canyon Mesa San. in 10 yrs
100910	5208.338974	4.367026	0.000000	0.000000	0.000000
; Castle Canyon Mesa San. in 10 yrs
100918	5207.324650	22.675350	0.000000	0.000000	0.000000
; Castle Canyon Mesa San. in 10 yrs
100920	5202.492430	12.507570	0.000000	0.000000	0.000000
; Castle Canyon Mesa San. in 10 yrs
100922	5195.669980	4.487020	0.000000	0.000000	0.000000
; Castle Canyon Mesa San. in 10 yrs
100924	5210.859675	9.140325	0.000000	0.000000	0.000000
; Castle Canyon Mesa San. in 10 yrs
100926	5211.863987	8.136013	0.000000	0.000000	0.000000
; Castle Canyon Mesa San. in 10 yrs
100928	5209.359571	20.640429	0.000000	0.000000	0.000000
; Castle Canyon Mesa San. in 10 yrs
100930	5184.138091	5.861909	0.000000	0.000000	0.000000
; Castle Canyon Mesa San. in 10 yrs
100932	5183.166169	18.150831	0.000000	0.000000	0.000000
; Castle Canyon Mesa San. in 10 yrs
100934	5182.061556	13.401444	0.000000	0.000000	0.000000
; Castle Canyon Mesa San. in 10 yrs
100936	5180.971296	8.947704	0.000000	0.000000	0.000000
; Castle Canyon Mesa San. in 10 yrs
100938	5199.085242	20.914758	0.000000	0.000000	0.000000
; Castle Canyon Mesa San. in 10 yrs
100940	5197.738856	22.261144	0.000000	0.000000	0.000000
; Castle Canyon Mesa San. in 10 yrs
100942	5180.974896	4.299104	0.000000	0.000000	0.000000
; Castle Canyon Mesa San. in 10 yrs
100944	5179.489869	28.239131	0.000000	0.000000	0.000000
; Castle Canyon Mesa San. in 10 yrs
100946	5178.177337	23.215663	0.000000	0.000000	0.000000
; Castle Canyon Mesa San. in 10 yrs
100948	5172.740437	18.769563	0.000000	0.000000	0.000000
; Castle Canyon Mesa San. in 10 yrs
100950	5160.803652	9.196348	0.000000	0.000000	0.000000
; Castle Canyon Mesa San. in 10 yrs
100952	5159.499720	7.500280	0.000000	0.000000	0.000000
; Castle Canyon Mesa San. in 10 yrs
100954	5198.037968	21.962032	0.000000	0.000000	0.000000
; Castle Canyon Mesa San. in 10 yrs
100956	5196.419677	23.580323	0.000000	0.000000	0.000000
; Castle Canyon Mesa San. in 10 yrs
100958	5187.594677	24.485323	0.000000	0.000000	0.000000
; Castle Canyon Mesa San. in 10 yrs
100960	5178.575089	21.424911	0.000000	0.000000	0.000000
; Castle Canyon Mesa San. in 10 yrs
100962	5174.915302	25.084698	0.000000	0.000000	0.000000
; Castle Canyon Mesa San. in 10 yrs
100964	5168.357722	25.354278	0.000000	0.000000	0.000000
; Castle Canyon Mesa San. in 10 yrs
100966	5164.889977	24.851023	0.000000	0.000000	0.000000
; Castle Canyon Mesa San. in 10 yrs
100968	5161.858585	25.586415	0.000000	0.000000	0.000000
; Castle Canyon Mesa San. in 10 yrs
100970	5157.931943	8.068057	0.000000	0.000000	0.000000
; Castle Canyon Mesa San. in 10 yrs
100972	5155.882120	20.681880	0.000000	0.000000	0.000000
; Castle Canyon Mesa San. in 10 yrs
100974	5154.243759	14.910241	0.000000	0.000000	0.000000
; Castle Canyon Mesa San. in 10 yrs
100976	5144.307602	3.020398	0.000000	0.000000	0.000000
; Castle Canyon Mesa San. in 10 yrs
100978	5145.452537	4.899463	0.000000	0.000000	0.000000
; Castle Canyon Mesa San. in 10 yrs
100980	5146.380428	5.831572	0.000000	0.000000	0.000000
; Castle Canyon Mesa San. in 10 yrs
100982	5147.215846	13.106154	0.000000	0.000000	0.000000
; Castle Canyon Mesa San. in 10 yrs
100984	5148.273160	16.797840	0.000000	0.000000	0.000000
; Castle Canyon Mesa San. in 10 yrs
100986	5149.076159	20.426841	0.000000	0.000000	0.000000
; Castle Canyon Mesa San. in 10 yrs
100988	5149.998707	25.457293	0.000000	0.000000	0.000000
; Castle Canyon Mesa San. in 10 yrs
100990	5230.899752	17.849248	0.000000	0.000000	0.000000
; Castle Canyon Mesa San. in 10 yrs
100992	5230.086005	14.485995	0.000000	0.000000	0.000000
; Castle Canyon Mesa San. in 10 yrs
100994	5229.198427	7.913573	0.000000	0.000000	0.000000
; Castle Canyon Mesa San. in 10 yrs
100996	5218.557552	17.325448	0.000000	0.000000	0.000000
; Castle Canyon Mesa San. in 10 yrs
100998	5212.508802	19.291198	0.000000	0.000000	0.000000
; New Manhole for BO
101	4854.000000	10.000000	0.000000	0.000000	0.000000
; Castle Canyon Mesa San. in 10 yrs
101000	5206.630347	19.718653	0.000000	0.000000	0.000000
; Castle Canyon Mesa San. in 10 yrs
101002	5194.830327	10.679673	0.000000	0.000000	0.000000
; Castle Canyon Mesa San. in 10 yrs
101004	5193.795061	16.788939	0.000000	0.000000	0.000000
; Castle Canyon Mesa San. in 10 yrs
101006	5188.162711	19.171289	0.000000	0.000000	0.000000
; Castle Canyon Mesa San. in 10 yrs
101008	5182.452211	23.957789	0.000000	0.000000	0.000000
; Castle Canyon Mesa San. in 10 yrs
101010	5176.061041	19.086959	0.000000	0.000000	0.000000
; Castle Canyon Mesa San. in 10 yrs
101012	5214.930287	17.259713	0.000000	0.000000	0.000000
; Castle Canyon Mesa San. in 10 yrs
101014	5214.256008	10.461992	0.000000	0.000000	0.000000
; Castle Canyon Mesa San. in 10 yrs
101016	5213.545254	11.429746	0.000000	0.000000	0.000000
; Castle Canyon Mesa San. in 10 yrs
101018	5203.990779	18.440221	0.000000	0.000000	0.000000
; Castle Canyon Mesa San. in 10 yrs
101020	5198.109924	21.113076	0.000000	0.000000	0.000000
; Castle Canyon Mesa San. in 10 yrs
101022	5192.903289	21.301711	0.000000	0.000000	0.000000
; Castle Canyon Mesa San. in 10 yrs
101024	5182.803579	24.369421	0.000000	0.000000	0.000000
; Castle Canyon Mesa San. in 10 yrs
101026	5181.694456	48.305544	0.000000	0.000000	0.000000
; Castle Canyon Mesa San. in 10 yrs
101028	5175.230606	39.769394	0.000000	0.000000	0.000000
; Castle Canyon Mesa San. in 10 yrs
101030	5214.303125	24.251875	0.000000	0.000000	0.000000
; Castle Canyon Mesa San. in 10 yrs
101032	5213.376663	15.712337	0.000000	0.000000	0.000000
; Castle Canyon Mesa San. in 10 yrs
101034	5212.244885	7.755115	0.000000	0.000000	0.000000
; Castle Canyon Mesa San. in 10 yrs
101036	5203.559360	16.440640	0.000000	0.000000	0.000000
; Castle Canyon Mesa San. in 10 yrs
101038	5197.598150	15.246850	0.000000	0.000000	0.000000
; Castle Canyon Mesa San. in 10 yrs
101040	5194.335350	15.980650	0.000000	0.000000	0.000000
; Castle Canyon Mesa San. in 10 yrs
101042	5191.289309	18.278691	0.000000	0.000000	0.000000
; Castle Canyon Mesa San. in 10 yrs
101044	5180.128159	9.871841	0.000000	0.000000	0.000000
; Castle Canyon Mesa San. in 10 yrs
101046	5179.230889	20.677111	0.000000	0.000000	0.000000
; Castle Canyon Mesa San. in 10 yrs
101048	5178.384891	16.822109	0.000000	0.000000	0.000000
; Castle Canyon Mesa San. in 10 yrs
101050	5177.564128	13.255872	0.000000	0.000000	0.000000
; Castle Canyon Mesa San. in 10 yrs
101052	5176.939844	13.971156	0.000000	0.000000	0.000000
; Castle Canyon Mesa San. in 10 yrs
101054	5207.110718	12.889282	0.000000	0.000000	0.000000
; Castle Canyon Mesa San. in 10 yrs
101056	5206.109587	13.890413	0.000000	0.000000	0.000000
; Castle Canyon Mesa San. in 10 yrs
101058	5196.726307	23.273693	0.000000	0.000000	0.000000
; Castle Canyon Mesa San. in 10 yrs
101060	5184.918000	15.082000	0.000000	0.000000	0.000000
; Castle Canyon Mesa San. in 10 yrs
101062	5181.966000	18.034000	0.000000	0.000000	0.000000
; Castle Canyon Mesa San. in 10 yrs
101064	5181.145000	18.855000	0.000000	0.000000	0.000000
; Castle Canyon Mesa San. in 10 yrs
101066	5180.016083	19.983917	0.000000	0.000000	0.000000
; Castle Canyon Mesa San. in 10 yrs
101068	5176.667473	23.332527	0.000000	0.000000	0.000000
; Castle Canyon Mesa San. in 10 yrs
101070	5170.444853	20.091147	0.000000	0.000000	0.000000
; Castle Canyon Mesa San. in 10 yrs
101072	5159.063153	20.936847	0.000000	0.000000	0.000000
; Castle Canyon Mesa San. in 10 yrs
101074	5158.182146	21.817854	0.000000	0.000000	0.000000
; Castle Canyon Mesa San. in 10 yrs
101076	5157.156288	22.843712	0.000000	0.000000	0.000000
; Castle Canyon Mesa San. in 10 yrs
101078	5156.009927	23.990073	0.000000	0.000000	0.000000
; Castle Canyon Mesa San. in 10 yrs
101080	5146.692797	20.428203	0.000000	0.000000	0.000000
; Castle Canyon Mesa San. in 10 yrs
101082	5145.689152	14.310848	0.000000	0.000000	0.000000
; Castle Canyon Mesa San. in 10 yrs
101084	5144.579471	15.420529	0.000000	0.000000	0.000000
; Castle Canyon Mesa San. in 10 yrs
101086	5143.646234	7.181766	0.000000	0.000000	0.000000
; Castle Canyon Mesa San. in 10 yrs
101088	5180.876000	19.124000	0.000000	0.000000	0.000000
; Castle Canyon Mesa San. in 10 yrs
101090	5169.588000	21.826000	0.000000	0.000000	0.000000
; Castle Canyon Mesa San. in 10 yrs
101092	5167.621013	18.563987	0.000000	0.000000	0.000000
; Castle Canyon Mesa San. in 10 yrs
101094	5162.095484	20.385516	0.000000	0.000000	0.000000
; Castle Canyon Mesa San. in 10 yrs
101096	5161.082829	18.917171	0.000000	0.000000	0.000000
; Castle Canyon Mesa San. in 10 yrs
101098	5160.110765	19.889235	0.000000	0.000000	0.000000
; Castle Canyon Mesa San. in 10 yrs
101100	5166.792086	19.739914	0.000000	0.000000	0.000000
; Castle Canyon Mesa San. in 10 yrs
101102	5161.022456	18.977544	0.000000	0.000000	0.000000
; Castle Canyon Mesa San. in 10 yrs
101104	5168.518000	21.834000	0.000000	0.000000	0.000000
; Castle Canyon Mesa San. in 10 yrs
101106	5180.155961	19.844039	0.000000	0.000000	0.000000
; Castle Canyon Mesa San. in 10 yrs
101108	5185.411000	24.244000	0.000000	0.000000	0.000000
; Castle Canyon Mesa San. in 10 yrs
101110	5182.709000	17.291000	0.000000	0.000000	0.000000
; Castle Canyon Mesa San. in 10 yrs
101112	5182.187000	17.813000	0.000000	0.000000	0.000000
; Castle Canyon Mesa San. in 10 yrs
101114	5155.488494	24.511506	0.000000	0.000000	0.000000
; Castle Canyon Mesa San. in 10 yrs
101116	5146.471734	23.447266	0.000000	0.000000	0.000000
; Castle Canyon Mesa San. in 10 yrs
101118	5145.552813	20.913187	0.000000	0.000000	0.000000
; Castle Canyon Mesa San. in 10 yrs
101120	5144.581646	20.356354	0.000000	0.000000	0.000000
; Castle Canyon Mesa San. in 10 yrs
101122	5143.711426	21.013574	0.000000	0.000000	0.000000
; Castle Canyon Mesa San. in 10 yrs
101124	5142.898610	17.684390	0.000000	0.000000	0.000000
; Castle Canyon Mesa San. in 10 yrs
101126	5142.030324	8.036676	0.000000	0.000000	0.000000
; Castle Canyon Mesa San. in 10 yrs
101128	5141.033526	21.491474	0.000000	0.000000	0.000000
; Castle Canyon Mesa San. in 10 yrs
101130	5127.629276	12.370724	0.000000	0.000000	0.000000
; Prescott Valley Manhole
101132	5126.860531	6.525469	0.000000	0.000000	0.000000
; Castle Canyon Mesa San. in 10 yrs
101134	5131.094064	8.905936	0.000000	0.000000	0.000000
; Castle Canyon Mesa San. in 10 yrs
101136	5132.003284	16.411716	0.000000	0.000000	0.000000
; Castle Canyon Mesa San. in 10 yrs
101138	5130.289564	9.710436	0.000000	0.000000	0.000000
; Castle Canyon Mesa San. in 10 yrs
101140	5129.327888	39.462112	0.000000	0.000000	0.000000
; Castle Canyon Mesa San. in 10 yrs
101142	5128.191229	19.016771	0.000000	0.000000	0.000000
; Castle Canyon Mesa San. in 10 yrs
101144	5161.377550	18.622450	0.000000	0.000000	0.000000
; Castle Canyon Mesa San. in 10 yrs
101146	5162.026620	11.973380	0.000000	0.000000	0.000000
; Castle Canyon Mesa San. in 10 yrs
101148	5160.659814	19.340186	0.000000	0.000000	0.000000
; Castle Canyon Mesa San. in 10 yrs
101150	5159.808955	20.191045	0.000000	0.000000	0.000000
; Castle Canyon Mesa San. in 10 yrs
101152	5160.513329	6.106671	0.000000	0.000000	0.000000
; Castle Canyon Mesa San. in 10 yrs
101154	5159.582673	16.964327	0.000000	0.000000	0.000000
; Castle Canyon Mesa San. in 10 yrs
101156	5150.726733	9.273267	0.000000	0.000000	0.000000
; Castle Canyon Mesa San. in 10 yrs
101158	5150.062073	19.937927	0.000000	0.000000	0.000000
; Castle Canyon Mesa San. in 10 yrs
101160	5138.580000	11.420000	0.000000	0.000000	0.000000
; Castle Canyon Mesa San. in 10 yrs
101162	5137.892000	11.943000	0.000000	0.000000	0.000000
; Castle Canyon Mesa San. in 10 yrs
101164	5137.198000	12.637000	0.000000	0.000000	0.000000
; Castle Canyon Mesa San. in 10 yrs
101166	5161.160512	18.839488	0.000000	0.000000	0.000000
; Castle Canyon Mesa San. in 10 yrs
101168	5148.239315	21.149685	0.000000	0.000000	0.000000
; Castle Canyon Mesa San. in 10 yrs
101170	5141.493593	18.506407	0.000000	0.000000	0.000000
; Castle Canyon Mesa San. in 10 yrs
101172	5142.142660	17.857340	0.000000	0.000000	0.000000
; Castle Canyon Mesa San. in 10 yrs
101174	5142.772122	17.227878	0.000000	0.000000	0.000000
; Castle Canyon Mesa San. in 10 yrs
101176	5137.201823	22.798177	0.000000	0.000000	0.000000
; Castle Canyon Mesa San. in 10 yrs
101178	5137.971162	22.028838	0.000000	0.000000	0.000000
; Castle Canyon Mesa San. in 10 yrs
101180	5138.862898	21.137102	0.000000	0.000000	0.000000
; Castle Canyon Mesa San. in 10 yrs
101182	5133.068243	11.621757	0.000000	0.000000	0.000000
; Castle Canyon Mesa San. in 10 yrs
101184	5151.276083	19.164917	0.000000	0.000000	0.000000
; Castle Canyon Mesa San. in 10 yrs
101186	5152.378194	15.493806	0.000000	0.000000	0.000000
; Castle Canyon Mesa San. in 10 yrs
101188	5132.193819	7.806181	0.000000	0.000000	0.000000
; Castle Canyon Mesa San. in 10 yrs
101190	5135.163000	15.414000	0.000000	0.000000	0.000000
; Castle Canyon Mesa San. in 10 yrs
101192	5136.292000	13.708000	0.000000	0.000000	0.000000
; Castle Canyon Mesa San. in 10 yrs
101194	5129.108000	6.892000	0.000000	0.000000	0.000000
; New Manhole for BO
1012	4574.000000	10.000000	0.000000	0.000000	0.000000
; Castle Canyon Mesa San. in 10 yrs
101200	5157.515968	22.484032	0.000000	0.000000	0.000000
; Castle Canyon Mesa San. in 10 yrs
101202	5156.587351	23.412649	0.000000	0.000000	0.000000
; New Manhole for BO
1014	4581.000000	10.000000	0.000000	0.000000	0.000000
; New Manhole for BO
1016	4592.000000	10.000000	0.000000	0.000000	0.000000
; New Manhole for BO
1018	4594.000000	10.000000	0.000000	0.000000	0.000000
; New Manhole
102	4982.740000	7.520000	0.000000	0.000000	0.000000
; New Manhole for BO
1020	4569.000000	10.000000	0.000000	0.000000	0.000000
; New Manhole for BO
1022	4544.000000	17.000000	0.000000	0.000000	0.000000
; New Manhole for BO
103	4789.000000	10.000000	0.000000	0.000000	0.000000
; New Manhole for BO
1038	4984.000000	15.000000	0.000000	0.000000	0.000000
; New Manhole
104	5188.580000	4.700000	0.000000	0.000000	0.000000
; New Manhole for BO
1040	4992.000000	15.000000	0.000000	0.000000	0.000000
; New Manhole for BO
1042	5007.000000	15.000000	0.000000	0.000000	0.000000
; New Manhole for BO
1044	5026.000000	10.000000	0.000000	0.000000	0.000000
; New Manhole for BO
1046	4973.000000	10.000000	0.000000	0.000000	0.000000
; New Manhole for BO
1048	4987.000000	10.000000	0.000000	0.000000	0.000000
; New Manhole for BO
105	4871.000000	10.000000	0.000000	0.000000	0.000000
; New Manhole for BO
1050	4998.000000	10.000000	0.000000	0.000000	0.000000
; New Manhole for BO
1052	5008.000000	10.000000	0.000000	0.000000	0.000000
; New Manhole for BO
1054	5013.000000	10.000000	0.000000	0.000000	0.000000
; New Manhole for BO
1056	5022.000000	10.000000	0.000000	0.000000	0.000000
; New Manhole for BO
1058	5027.000000	10.000000	0.000000	0.000000	0.000000
; New Manhole
106	5188.580000	4.700000	0.000000	0.000000	0.000000
; New Manhole for BO
1060	5031.000000	10.000000	0.000000	0.000000	0.000000
; New Manhole for BO
1062	5019.000000	10.000000	0.000000	0.000000	0.000000
; New Manhole for BO
1064	5017.000000	10.000000	0.000000	0.000000	0.000000
; New Manhole for BO
1066	5012.000000	10.000000	0.000000	0.000000	0.000000
; New Manhole for BO
1068	5003.000000	10.000000	0.000000	0.000000	0.000000
; New Manhole for BO
107	4909.000000	10.000000	0.000000	0.000000	0.000000
; New Manhole for BO
1070	4995.000000	10.000000	0.000000	0.000000	0.000000
; New Manhole for BO
1072	4978.000000	10.000000	0.000000	0.000000	0.000000
; New Manhole for BO
1074	4977.000000	10.000000	0.000000	0.000000	0.000000
; New Manhole for BO
1076	4972.000000	10.000000	0.000000	0.000000	0.000000
; New Manhole
108	5182.890000	4.900000	0.000000	0.000000	0.000000
; New Manhole for BO
1082	4798.000000	10.000000	0.000000	0.000000	0.000000
; New Manhole for BO
1084	4833.000000	10.000000	0.000000	0.000000	0.000000
; New Manhole for BO
1086	4856.000000	10.000000	0.000000	0.000000	0.000000
; New Manhole for BO
1088	4961.000000	10.000000	0.000000	0.000000	0.000000
; New Manhole for BO
109	5349.000000	10.000000	0.000000	0.000000	0.000000
; New Manhole for BO
1090	4980.000000	10.000000	0.000000	0.000000	0.000000
; New Manhole for BO
1092	4994.000000	10.000000	0.000000	0.000000	0.000000
; New Manhole for BO
1094	5009.000000	10.000000	0.000000	0.000000	0.000000
; New Manhole for BO
1096	4606.000000	10.000000	0.000000	0.000000	0.000000
; New Manhole for BO
1098	4611.000000	10.000000	0.000000	0.000000	0.000000
; Jasper MP BO
10A	5115.000000	10.000000	0.000000	0.000000	0.000000
; Jasper MP BO
10E	5102.000000	10.000000	0.000000	0.000000	0.000000
; New Manhole
110	5182.890000	4.900000	0.000000	0.000000	0.000000
; New Manhole for BO
1100	4613.000000	10.000000	0.000000	0.000000	0.000000
; New Manhole for BO
1102	4616.000000	10.000000	0.000000	0.000000	0.000000
; New Manhole for BO
1104	4608.000000	8.000000	0.000000	0.000000	0.000000
; New Manhole for BO
1106	4610.000000	10.000000	0.000000	0.000000	0.000000
; New Manhole for BO
1108	4618.000000	10.000000	0.000000	0.000000	0.000000
; New Manhole for BO
111	5287.000000	10.000000	0.000000	0.000000	0.000000
; New Manhole for BO
1110	4624.000000	10.000000	0.000000	0.000000	0.000000
; New Manhole for BO
1112	4630.000000	10.000000	0.000000	0.000000	0.000000
; New Manhole for BO
1114	4640.000000	10.000000	0.000000	0.000000	0.000000
; New Manhole for BO
1116	4644.000000	10.000000	0.000000	0.000000	0.000000
; New Manhole for BO
1118	4652.000000	10.000000	0.000000	0.000000	0.000000
; New Manhole
112	5176.110000	6.600000	0.000000	0.000000	0.000000
; New Manhole for BO
1122	4655.000000	10.796875	0.000000	0.000000	0.000000
; New Manhole for BO
1124	4657.000000	7.739258	0.000000	0.000000	0.000000
; New Manhole for BO
1126	4660.000000	8.000000	0.000000	0.000000	0.000000
; New Manhole for BO
1128	4664.000000	10.000000	0.000000	0.000000	0.000000
; New Manhole for BO
113	5283.476074	10.000000	0.000000	0.000000	0.000000
; New Manhole for BO
1130	4668.000000	10.000000	0.000000	0.000000	0.000000
; New Manhole for BO
1132	4675.000000	25.000000	0.000000	0.000000	0.000000
; New Manhole for BO
1134	4680.000000	20.000000	0.000000	0.000000	0.000000
; New Manhole for BO
1136	4685.000000	15.000000	0.000000	0.000000	0.000000
; New Manhole for BO
1138	4691.000000	14.000000	0.000000	0.000000	0.000000
; New Manhole
114	5176.110000	6.600000	0.000000	0.000000	0.000000
; New Manhole for BO
1140	4694.000000	10.000000	0.000000	0.000000	0.000000
; New Manhole for BO
1142	4696.000000	4.000000	0.000000	0.000000	0.000000
; New Manhole for BO
1144	4700.000000	10.000000	0.000000	0.000000	0.000000
; New Manhole for BO
1146	4744.000000	10.000000	0.000000	0.000000	0.000000
; New Manhole for BO
1148	4716.000000	10.000000	0.000000	0.000000	0.000000
; New Manhole for BO
115	5261.547852	10.000000	0.000000	0.000000	0.000000
; New Manhole for BO
1150	4754.000000	10.000000	0.000000	0.000000	0.000000
; New Manhole for BO
1152	4782.000000	10.000000	0.000000	0.000000	0.000000
; New Manhole for BO
1154	4820.000000	10.000000	0.000000	0.000000	0.000000
; New Manhole for BO
1156	4848.000000	20.000000	0.000000	0.000000	0.000000
; New Manhole for BO
1158	4890.000000	10.000000	0.000000	0.000000	0.000000
; New Manhole
116	5167.640000	6.700000	0.000000	0.000000	0.000000
; New Manhole for BO
1160	4852.000000	10.000000	0.000000	0.000000	0.000000
; New Manhole for BO
1162	4698.000000	2.000000	0.000000	0.000000	0.000000
; New Manhole for BO
1164	4702.000000	10.000000	0.000000	0.000000	0.000000
; New Manhole for BO
1166	4708.000000	10.000000	0.000000	0.000000	0.000000
; New Manhole for BO
1168	4714.000000	10.000000	0.000000	0.000000	0.000000
; New Manhole for BO
117	5220.747559	10.000000	0.000000	0.000000	0.000000
; New Manhole for BO
1170	4722.000000	10.000000	0.000000	0.000000	0.000000
; New Manhole for BO
1172	4732.000000	10.000000	0.000000	0.000000	0.000000
; New Manhole for BO
1174	4748.000000	10.000000	0.000000	0.000000	0.000000
; New Manhole for BO
1176	4764.000000	10.000000	0.000000	0.000000	0.000000
; New Manhole for BO
1178	4772.000000	10.000000	0.000000	0.000000	0.000000
; New Manhole
118	5155.600000	8.600000	0.000000	0.000000	0.000000
; New Manhole for BO
1180	4774.000000	10.000000	0.000000	0.000000	0.000000
; New Manhole for BO
1182	4780.000000	10.000000	0.000000	0.000000	0.000000
; New Manhole for BO
1184	4790.000000	10.000000	0.000000	0.000000	0.000000
; New Manhole for BO
1186	4814.000000	10.000000	0.000000	0.000000	0.000000
; New Manhole for BO
1188	4845.000000	10.000000	0.000000	0.000000	0.000000
; New Manhole for BO
119	5201.366699	10.000000	0.000000	0.000000	0.000000
; New Manhole for BO
1190	4864.000000	10.000000	0.000000	0.000000	0.000000
; New Manhole for BO
1192	4890.000000	10.000000	0.000000	0.000000	0.000000
1193	4953.400000	6.800000	0.000000	0.000000	0.000000
; New Manhole for BO
1194	4893.000000	10.000000	0.000000	0.000000	0.000000
; New Manhole for BO
1196	4905.000000	10.000000	0.000000	0.000000	0.000000
; New Manhole for BO
1198	4910.000000	10.000000	0.000000	0.000000	0.000000
; Jasper MP BO
11A	5155.000000	10.000000	0.000000	0.000000	0.000000
; Jasper MP BO
11E	5103.000000	10.000000	0.000000	0.000000	0.000000
; for BO
12	4897.146973	10.000000	0.000000	0.000000	0.000000
; New Manhole
120	5143.830000	7.700000	0.000000	0.000000	0.000000
; New Manhole for BO
1200	4921.000000	10.000000	0.000000	0.000000	0.000000
; New Manhole for BO
1202	4928.000000	10.000000	0.000000	0.000000	0.000000
1206	4951.500000	13.600000	0.000000	0.000000	0.000000
; New Manhole for BO
121	5221.703125	10.000000	0.000000	0.000000	0.000000
; New Manhole for BO
1212	5069.000000	10.000000	0.000000	0.000000	0.000000
; New Manhole for BO
1214	5050.000000	10.000000	0.000000	0.000000	0.000000
; New Manhole for BO
1216	5028.000000	10.000000	0.000000	0.000000	0.000000
; New Manhole
122	5152.490000	4.600000	0.000000	0.000000	0.000000
; New Manhole for BO
1220	4970.000000	10.000000	0.000000	0.000000	0.000000
; New Manhole for BO
1222	4960.000000	10.000000	0.000000	0.000000	0.000000
; New Manhole for BO
1224	4930.000000	10.000000	0.000000	0.000000	0.000000
; New Manhole for BO
1226	4919.000000	10.000000	0.000000	0.000000	0.000000
; New Manhole for BO
1228	4888.000000	10.000000	0.000000	0.000000	0.000000
; New Manhole for BO
123	5290.000000	10.000000	0.000000	0.000000	0.000000
; New Manhole for BO
1230	5053.000000	10.000000	0.000000	0.000000	0.000000
; New Manhole for BO
1232	5009.000000	10.000000	0.000000	0.000000	0.000000
; New Manhole for BO
1234	4990.000000	10.000000	0.000000	0.000000	0.000000
; New Manhole for BO
1236	4970.000000	10.000000	0.000000	0.000000	0.000000
; New Manhole for BO
1238	4906.000000	10.000000	0.000000	0.000000	0.000000
; New Manhole
124	5183.600000	4.600000	0.000000	0.000000	0.000000
; New Manhole for BO
1240	4868.000000	10.000000	0.000000	0.000000	0.000000
; New Manhole for BO
1242	4849.000000	10.000000	0.000000	0.000000	0.000000
; New Manhole for BO
1244	4941.000000	10.000000	0.000000	0.000000	0.000000
; New Manhole for BO
1246	4893.000000	10.000000	0.000000	0.000000	0.000000
; New Manhole for BO
1248	4927.000000	10.000000	0.000000	0.000000	0.000000
; New Manhole for BO
125	5347.504883	10.000000	0.000000	0.000000	0.000000
; New Manhole for BO
1250	4945.000000	10.000000	0.000000	0.000000	0.000000
; New Manhole
126	5348.900000	5.110000	0.000000	0.000000	0.000000
; New Manhole for BO
1266	4899.000000	10.000000	0.000000	0.000000	0.000000
; New Manhole for BO
1268	4850.000000	10.000000	0.000000	0.000000	0.000000
; New Manhole for BO
127	5349.000000	23.000000	0.000000	0.000000	0.000000
; New Manhole for BO
1270	4820.000000	3.000000	0.000000	0.000000	0.000000
; New Manhole for BO
1272	4928.000000	10.000000	0.000000	0.000000	0.000000
; New Manhole for BO
1274	4903.000000	10.000000	0.000000	0.000000	0.000000
; New Manhole for BO
1276	4888.000000	10.000000	0.000000	0.000000	0.000000
; New Manhole for BO