[TITLE]
;;Project Title/Notes

[OPTIONS]
;;Option             Value
FLOW_UNITS           LPS
INFILTRATION         HORTON
FLOW_ROUTING         DYNWAVE
LINK_OFFSETS         DEPTH
MIN_SLOPE            0
ALLOW_PONDING        NO
SKIP_STEADY_STATE    NO

IGNORE_RAINFALL      YES
IGNORE_SNOWMELT      YES
IGNORE_GROUNDWATER   YES
IGNORE_QUALITY       YES
START_DATE           01/01/2012
START_TIME           00:00:00
REPORT_START_DATE    01/01/2012
REPORT_START_TIME    00:00:00
END_DATE             01/02/2012
END_TIME             00:00:00
SWEEP_START          01/01
SWEEP_END            12/31
DRY_DAYS             5.000000
REPORT_STEP          00:05:00
WET_STEP             01:00:00
DRY_STEP             23:00:00
ROUTING_STEP         0:00:08 

INERTIAL_DAMPING     FULL
NORMAL_FLOW_LIMITED  BOTH
FORCE_MAIN_EQUATION  H-W
VARIABLE_STEP        0.75
LENGTHENING_STEP     15
MIN_SURFAREA         0
MAX_TRIALS           8
HEAD_TOLERANCE       0.010000
SYS_FLOW_TOL         5
LAT_FLOW_TOL         5
MINIMUM_STEP         0
THREADS              1

[EVAPORATION]
;;Data Source    Parameters
;;-------------- ----------------
CONSTANT         0.0
DRY_ONLY         NO

[JUNCTIONS]
;;Name           Elevation  MaxDepth   InitDepth  SurDepth   Aponded   
;;-------------- ---------- ---------- ---------- ---------- ----------
; ENDCAP
1045740          49.750000  0.516000   0.000000   0.000000   0.000000  
; ENDCAP
1045778          94.800000  0.080000   0.000000   200.000000 0.000000  
; MANHOLE_PUB
1045944          63.040000  3.844000   0.000000   0.000000   0.000000  
; ENDCAP
1045945          64.860000  2.151000   0.000000   0.000000   0.000000  
; MANHOLE_PUB
1045946          62.250000  2.173000   0.000000   0.000000   0.000000  
; MANHOLE_PUB
1045947          58.490000  3.281000   0.000000   0.000000   0.000000  
; MANHOLE_PUB
1045948          60.230000  4.166000   0.000000   0.000000   0.000000  
; MANHOLE_PUB
1045949          67.740000  2.116000   0.000000   0.000000   0.000000  
; MANHOLE_PUB
1045950          72.240000  2.288000   0.000000   0.000000   0.000000  
; MANHOLE_PUB
1050078          2.594000   2.501000   0.000000   0.000000   0.000000  
; MANHOLE_PUB
1051180          25.000000  1.643000   0.000000   0.000000   0.000000  
; ENDCAP
1051181          25.310000  1.186000   0.000000   0.000000   0.000000  
; MANHOLE_PUB
1051506          51.730000  2.928000   0.000000   0.000000   0.000000  
; MANHOLE_PUB
1051507          53.940000  2.332000   0.000000   0.000000   0.000000  
; MANHOLE_PUB
1051508          61.260000  0.997000   0.000000   0.000000   0.000000  
; MANHOLE_PUB
1051509          52.170000  1.015000   0.000000   0.000000   0.000000  
; MANHOLE_PUB
1051510          49.780000  2.345000   0.000000   0.000000   0.000000  
; MANHOLE_PUB
1051511          47.600000  1.764000   0.000000   0.000000   0.000000  
; MANHOLE_PUB
1051512          49.990000  2.390000   0.000000   0.000000   0.000000  
; MANHOLE_PUB
1051513          50.730000  1.795000   0.000000   0.000000   0.000000  
; MANHOLE_PUB
1051514          53.330000  1.300000   0.000000   0.000000   0.000000  
; MANHOLE_PUB
1051515          57.850000  1.645000   0.000000   0.000000   0.000000  
; MANHOLE_PUB
1051516          58.030000  2.155000   0.000000   0.000000   0.000000  
; ENDCAP
1051517          54.260000  2.040000   0.000000   0.000000   0.000000  
; MANHOLE_PUB
1051518          68.190000  0.905000   0.000000   0.000000   0.000000  
; MANHOLE_PUB
1051539          0.180000   3.539000   0.000000   0.000000   0.000000  
; MANHOLE_PUB
1051540          0.730000   3.260000   0.000000   0.000000   0.000000  
; MANHOLE_PUB
1051541          1.230000   2.678000   0.000000   0.000000   0.000000  
; MANHOLE_PUB
1051542          0.540000   3.466000   0.000000   0.000000   0.000000  
; MANHOLE_PUB
1051543          -0.590000  3.978000   0.000000   0.000000   0.000000  
; MANHOLE_PUB
1051544          -0.250000  3.755000   0.000000   0.000000   0.000000  
; MANHOLE_PUB
1051545          2.530000   1.540000   0.000000   0.000000   0.000000  
; MANHOLE_PUB
1051546          1.690000   2.033000   0.000000   0.000000   0.000000  
; MANHOLE_PUB
1051547          1.570000   1.906000   0.000000   0.000000   0.000000  
; MANHOLE_PUB
1051548          2.710000   1.648000   0.000000   0.000000   0.000000  
; MANHOLE_PUB
1051549          2.350000   1.659000   0.000000   0.000000   0.000000  
; ENDCAP
1051550          2.080000   1.613000   0.000000   0.000000   0.000000  
; ENDCAP
1051551          2.250000   1.317000   0.000000   0.000000   0.000000  
; ENDCAP
1051552          2.050000   1.445000   0.000000   0.000000   0.000000  
; ENDCAP
1051553          1.860000   1.552000   0.000000   0.000000   0.000000  
; ENDCAP
1051554          2.150000   2.162000   0.000000   0.000000   0.000000  
; MANHOLE_PUB
1051555          1.710000   0.976000   0.000000   0.000000   0.000000  
; MANHOLE_PUB
1204177          5.020000   1.360000   0.000000   0.000000   0.000000  
; MANHOLE_PUB
1204178          5.960000   0.801000   0.000000   0.000000   0.000000  
; MANHOLE_PUB
1204179          5.860000   0.839000   0.000000   0.000000   0.000000  
; MANHOLE_PUB
1204180          5.590000   1.219000   0.000000   0.000000   0.000000  
; MANHOLE_PUB
1204181          5.270000   1.717000   0.000000   0.000000   0.000000  
; MANHOLE_PUB
1204182          4.700000   2.426000   0.000000   0.000000   0.000000  
; MANHOLE_PUB
1204183          4.390000   2.520000   0.000000   0.000000   0.000000  
; MANHOLE_PUB
1204184          4.010000   1.947000   0.000000   0.000000   0.000000  
; MANHOLE_PUB
1204185          3.800000   2.390000   0.000000   0.000000   0.000000  
; MANHOLE_PUB
1204186          3.440000   2.550000   0.000000   0.000000   0.000000  
; MANHOLE_PUB
1204187          3.300000   2.248000   0.000000   0.000000   0.000000  
; MANHOLE_PUB
1204188          3.030000   2.455000   0.000000   0.000000   0.000000  
; MANHOLE_PUB
1204189          2.710000   2.432000   0.000000   0.000000   0.000000  
; MANHOLE_PUB
1204190          2.440000   2.691000   0.000000   0.000000   0.000000  
; MANHOLE_PUB
1204191          1.970000   2.970000   0.000000   0.000000   0.000000  
; MANHOLE_PUB
1204192          0.440000   3.481000   0.000000   0.000000   0.000000  
; MANHOLE_PUB
1204193          0.700000   3.019000   0.000000   0.000000   0.000000  
; MANHOLE_PUB
1204194          1.160000   2.034000   0.000000   0.000000   0.000000  
; ENDCAP
1204195          3.210000   0.206000   0.000000   0.000000   0.000000  
; MANHOLE_PUB
1204196          1.590000   1.630000   0.000000   0.000000   0.000000  
; MANHOLE_PUB
1204197          2.060000   1.189000   0.000000   0.000000   0.000000  
; ENDCAP
1204198          2.270000   1.099000   0.000000   0.000000   0.000000  
; ENDCAP
1294809          36.620000  0.890000   0.000000   0.000000   0.000000  
; MANHOLE_PUB
1294810          36.640000  0.804000   0.000000   0.000000   0.000000  
; ENDCAP
1294812          49.820000  0.970000   0.000000   0.000000   0.000000  
; MANHOLE_PUB
1294813          43.680000  1.653000   0.000000   0.000000   0.000000  
; MANHOLE_PUB
1294814          43.380000  2.116000   0.000000   0.000000   0.000000  
; MANHOLE_PUB
1294815          43.100000  2.189000   0.000000   0.000000   0.000000  
; MANHOLE_PUB
1294816          42.190000  1.666000   0.000000   0.000000   0.000000  
; ENDCAP
1294818          40.770000  0.896000   0.000000   0.000000   0.000000  
; MANHOLE_PUB
1294819          41.750000  2.556000   0.000000   0.000000   0.000000  
; MANHOLE_PUB
1294820          37.400000  2.471000   0.000000   0.000000   0.000000  
; ENDCAP
1294821          37.000000  1.139000   0.000000   0.000000   0.000000  
; MANHOLE_PUB
1294822          35.980000  1.571000   0.000000   0.000000   0.000000  
; MANHOLE_PUB
1294823          39.020000  1.666000   0.000000   0.000000   0.000000  
; ENDCAP
1294824          38.310000  1.245000   0.000000   0.000000   0.000000  
; MANHOLE_PUB
1294825          37.520000  1.930000   0.000000   0.000000   0.000000  
; MANHOLE_PUB
1294826          36.170000  1.699000   0.000000   0.000000   0.000000  
; MANHOLE_PUB
1294827          38.830000  2.589000   0.000000   0.000000   0.000000  
; MANHOLE_PUB
1294828          44.870000  2.050000   0.000000   0.000000   0.000000  
; MANHOLE_PUB
1294829          39.620000  2.135000   0.000000   0.000000   0.000000  
; MANHOLE_PUB
1294830          40.280000  1.176000   0.000000   0.000000   0.000000  
; MANHOLE_PUB
1294831          42.200000  2.825000   0.000000   0.000000   0.000000  
; MANHOLE_PUB
1294832          40.470000  1.265000   0.000000   0.000000   0.000000  
; MANHOLE_PUB
1294834          46.270000  1.403000   0.000000   0.000000   0.000000  
; MANHOLE_PUB
1294835          41.320000  3.463000   0.000000   0.000000   0.000000  
; MANHOLE_PUB
1294836          42.600000  1.507000   0.000000   0.000000   0.000000  
; MANHOLE_PUB
1294837          46.810000  2.334000   0.000000   0.000000   0.000000  
; MANHOLE_PUB
1294838          49.450000  1.191000   0.000000   0.000000   0.000000  
; ENDCAP
1294839          51.660000  1.369000   0.000000   0.000000   0.000000  
; ENDCAP
1294986          37.840000  3.290000   0.000000   0.000000   0.000000  
; JUNCTION
1294992          36.341000  0.100000   0.000000   200.000000 0.000000  
; MANHOLE_PUB
1295006          42.860000  2.313000   0.000000   0.000000   0.000000  
; MANHOLE_PUB
1295493          1.320000   1.671000   0.000000   0.000000   0.000000  
; MANHOLE_PUB
1295494          1.430000   1.634000   0.000000   0.000000   0.000000  
; MANHOLE_PUB
1295497          0.980000   2.275000   0.000000   0.000000   0.000000  
; MANHOLE_PUB
1295498          1.728000   1.421000   0.000000   0.000000   0.000000  
; MANHOLE_PUB
1295503          0.296000   2.398000   0.000000   0.000000   0.000000  
; ENDCAP
1295506          1.530000   1.194000   0.000000   0.000000   0.000000  
; MANHOLE_PUB
1295507          0.370000   2.166000   0.000000   0.000000   0.000000  
; MANHOLE_PUB
1295532          0.195000   2.816000   0.000000   0.000000   0.000000  
; MANHOLE_PUB
1295540          0.875000   1.605000   0.000000   0.000000   0.000000  
; MANHOLE_PUB
1295543          0.309000   2.670000   0.000000   0.000000   0.000000  
; JUNCTION
1295548          2.570000   0.150000   0.000000   200.000000 0.000000  
; MANHOLE_PUB
1295549          2.278000   0.361000   0.000000   0.000000   0.000000  
; MANHOLE_PUB
1295553          12.190000  1.336000   0.000000   0.000000   0.000000  
; MANHOLE_PUB
1295664          1.528000   1.506000   0.000000   0.000000   0.000000  
; MANHOLE_PUB
1295666          1.750000   0.876000   0.000000   0.000000   0.000000  
; MANHOLE_PUB
1295667          1.650000   1.152000   0.000000   0.000000   0.000000  
; MANHOLE_PUB
1295668          1.570000   1.238000   0.000000   0.000000   0.000000  
; MANHOLE_PUB
1295669          1.026000   2.191000   0.000000   0.000000   0.000000  
; MANHOLE_PUB
1295831          22.475000  2.145000   0.000000   0.000000   0.000000  
; MANHOLE_PUB
1295832          22.745000  2.435000   0.000000   0.000000   0.000000  
; MANHOLE_PUB
1295885          1.240000   1.389000   0.000000   0.000000   0.000000  
; MANHOLE_PUB
1295888          1.430000   1.549000   0.000000   0.000000   0.000000  
; MANHOLE_PUB
1295889          0.990000   1.963000   0.000000   0.000000   0.000000  
; MANHOLE_PUB
1295903          -0.660000  2.595000   0.000000   0.000000   0.000000  
; MANHOLE_PUB
1295904          1.001000   0.907000   0.000000   0.000000   0.000000  
; ENDCAP
1295905          1.140000   0.996000   0.000000   0.000000   0.000000  
; MANHOLE_PUB
1295911          0.104000   1.883000   0.000000   0.000000   0.000000  
; MANHOLE_PUB
1295912          0.024000   2.157000   0.000000   0.000000   0.000000  
; MANHOLE_PUB
1295913          -0.016000  2.690000   0.000000   0.000000   0.000000  
; MANHOLE_PUB
1295919          0.737000   2.046000   0.000000   0.000000   0.000000  
; MANHOLE_PUB
1295922          1.429000   2.286000   0.000000   0.000000   0.000000  
; MANHOLE_PUB
1295932          2.250000   2.032000   0.000000   0.000000   0.000000  
; MANHOLE_PUB
1295933          2.400000   1.479000   0.000000   0.000000   0.000000  
; MANHOLE_PUB
1295934          2.770000   1.501000   0.000000   0.000000   0.000000  
; ENDCAP
1295935          3.370000   1.116000   0.000000   0.000000   0.000000  
; MANHOLE_PUB
1295940          1.570000   1.278000   0.000000   0.000000   0.000000  
; MANHOLE_PUB
1296101          10.020000  1.430000   0.000000   0.000000   0.000000  
; MANHOLE_PUB
1296102          9.560000   1.955000   0.000000   0.000000   0.000000  
; MANHOLE_PUB
1296103          9.370000   1.915000   0.000000   0.000000   0.000000  
; ENDCAP
1310392          35.490000  2.416000   0.000000   0.000000   0.000000  
; ENDCAP
1310394          46.270000  1.303000   0.000000   0.000000   0.000000  
; ENDCAP
1310395          46.130000  1.491000   0.000000   0.000000   0.000000  
; MANHOLE_PUB
1310396          41.180000  1.660000   0.000000   0.000000   0.000000  
; MANHOLE_PUB
1310397          41.900000  1.810000   0.000000   0.000000   0.000000  
; MANHOLE_PUB
1310398          41.960000  1.606000   0.000000   0.000000   0.000000  
; MANHOLE_PUB
1310399          42.380000  2.493000   0.000000   0.000000   0.000000  
; MANHOLE_PUB
1310400          43.970000  2.736000   0.000000   0.000000   0.000000  
; MANHOLE_PUB
1310401          42.820000  3.169000   0.000000   0.000000   0.000000  
; MANHOLE_PUB
1310402          42.640000  3.319000   0.000000   0.000000   0.000000  
; MANHOLE_PUB
1310403          42.550000  2.652000   0.000000   0.000000   0.000000  
; MANHOLE_PUB
1310404          42.120000  2.988000   0.000000   0.000000   0.000000  
; MANHOLE_PUB
1310405          45.930000  1.632000   0.000000   0.000000   0.000000  
; MANHOLE_PUB
1310406          45.300000  1.774000   0.000000   0.000000   0.000000  
; MANHOLE_PUB
1310407          42.950000  2.352000   0.000000   0.000000   0.000000  
; MANHOLE_PUB
1310408          41.910000  1.757000   0.000000   0.000000   0.000000  
; MANHOLE_PUB
1310409          39.580000  1.687000   0.000000   0.000000   0.000000  
; MANHOLE_PUB
1310410          43.700000  3.200000   0.000000   0.000000   0.000000  
; MANHOLE_PUB
1310411          40.930000  2.024000   0.000000   0.000000   0.000000  
; MANHOLE_PUB
1310412          38.660000  1.655000   0.000000   0.000000   0.000000  
; MANHOLE_PUB
1310413          38.250000  1.653000   0.000000   0.000000   0.000000  
; MANHOLE_PUB
1310414          49.260000  1.974000   0.000000   0.000000   0.000000  
; MANHOLE_PUB
1310415          47.640000  2.431000   0.000000   0.000000   0.000000  
; MANHOLE_PUB
1310416          43.310000  2.429000   0.000000   0.000000   0.000000  
; MANHOLE_PUB
1310417          40.150000  2.636000   0.000000   0.000000   0.000000  
; MANHOLE_PUB
1310418          39.760000  2.536000   0.000000   0.000000   0.000000  
; MANHOLE_PUB
1310419          37.890000  1.221000   0.000000   0.000000   0.000000  
; MANHOLE_PUB
1310420          35.560000  3.610000   0.000000   0.000000   0.000000  
; MANHOLE_PUB
1310421          35.410000  2.641000   0.000000   0.000000   0.000000  
; MANHOLE_PUB
1310422          33.280000  3.579000   0.000000   0.000000   0.000000  
; MANHOLE_PUB
1310423          33.030000  3.254000   0.000000   0.000000   0.000000  
; MANHOLE_PUB
1310424          31.330000  1.622000   0.000000   0.000000   0.000000  
; MANHOLE_PUB
1310425          30.420000  1.225000   0.000000   0.000000   0.000000  
; MANHOLE_PUB
1310426          29.067000  2.577000   0.000000   0.000000   0.000000  
; MANHOLE_PUB
1313495          1.200000   1.514000   0.000000   0.000000   0.000000  
; MANHOLE_PUB
1313496          0.930000   1.866000   0.000000   0.000000   0.000000  
; MANHOLE_PUB
1313497          0.150000   2.535000   0.000000   0.000000   0.000000  
; MANHOLE_PUB
1315112          72.080000  1.581000   0.000000   0.000000   0.000000  
; MANHOLE_PUB
1315113          72.100000  2.203000   0.000000   0.000000   0.000000  
; ENDCAP
1315114          84.240000  0.150000   0.000000   0.000000   0.000000  
; JUNCTION
132722           1.050000   0.600000   0.000000   200.000000 0.000000  
; ENDCAP
1397613          2.400000   1.672000   0.000000   0.000000   0.000000  
; ENDCAP
1669541          54.150000  0.649000   0.000000   0.000000   0.000000  
; MANHOLE_PUB
1669542          64.570000  1.219000   0.000000   0.000000   0.000000  
; MANHOLE_PUB
1669543          56.100000  2.344000   0.000000   0.000000   0.000000  
; MANHOLE_PUB
1669544          56.980000  2.770000   0.000000   0.000000   0.000000  
; MANHOLE_PUB
1669545          62.810000  1.449000   0.000000   0.000000   0.000000  
; ENDCAP
1761454          2.080000   1.611000   0.000000   0.000000   0.000000  
; ENDCAP
1761455          2.130000   1.631000   0.000000   0.000000   0.000000  
; ENDCAP
1761456          2.210000   1.354000   0.000000   0.000000   0.000000  
; MANHOLE_PUB
1761457          1.350000   2.106000   0.000000   0.000000   0.000000  
; MANHOLE_PUB
1761458          1.630000   1.994000   0.000000   0.000000   0.000000  
; MANHOLE_PUB
1761459          1.950000   1.594000   0.000000   0.000000   0.000000  
; MANHOLE_PUB
1761460          1.790000   1.954000   0.000000   0.000000   0.000000  
; MANHOLE_PUB
1761461          0.900000   2.897000   0.000000   0.000000   0.000000  
; MANHOLE_PUB
1761462          0.320000   2.220000   0.000000   0.000000   0.000000  
; MANHOLE_PUB
1761856          16.550000  1.144000   0.000000   0.000000   0.000000  
; MANHOLE_PUB
1761857          16.890000  0.846000   0.000000   0.000000   0.000000  
; MANHOLE_PUB
1991235          28.000000  1.755000   0.000000   0.000000   0.000000  
; MANHOLE_PUB
1991238          8.538000   1.165000   0.000000   0.000000   0.000000  
; MANHOLE_PUB
1994207          0.396000   2.507000   0.000000   0.000000   0.000000  
; ENDCAP
1994462          2.570000   1.335000   0.000000   0.000000   0.000000  
; MANHOLE_PUB
20098            2.150000   2.586000   0.000000   0.000000   0.000000  
; MANHOLE_PUB
20099            2.530000   2.569000   0.000000   0.000000   0.000000  
; MANHOLE_PUB
20100            2.680000   2.360000   0.000000   0.000000   0.000000  
; MANHOLE_PUB
20101            5.050000   1.842000   0.000000   0.000000   0.000000  
; MANHOLE_PUB
20102            10.870000  0.984000   0.000000   0.000000   0.000000  
; MANHOLE_PUB
20103            3.480000   1.256000   0.000000   0.000000   0.000000  
; MANHOLE_PUB
20104            4.020000   1.399000   0.000000   0.000000   0.000000  
; MANHOLE_PUB
20105            5.560000   1.432000   0.000000   0.000000   0.000000  
; MANHOLE_PUB
20106            1.690000   3.095000   0.000000   0.000000   0.000000  
; MANHOLE_PUB
20107            1.620000   3.011000   0.000000   0.000000   0.000000  
; MANHOLE_PUB
20108            1.970000   2.766000   0.000000   0.000000   0.000000  
; MANHOLE_PUB
20109            2.130000   2.074000   0.000000   0.000000   0.000000  
; MANHOLE_PUB
20110            2.900000   1.209000   0.000000   0.000000   0.000000  
; MANHOLE_PUB
20111            0.720000   2.921000   0.000000   0.000000   0.000000  
; MANHOLE_PUB
20112            0.270000   3.200000   0.000000   0.000000   0.000000  
; MANHOLE_PUB
20113            1.740000   1.989000   0.000000   0.000000   0.000000  
; MANHOLE_PUB
20114            2.110000   1.560000   0.000000   0.000000   0.000000  
; MANHOLE_PUB
20115            0.910000   2.481000   0.000000   0.000000   0.000000  
; MANHOLE_PUB
20116            1.070000   2.358000   0.000000   0.000000   0.000000  
; MANHOLE_PUB
20117            1.520000   1.925000   0.000000   0.000000   0.000000  
; MANHOLE_PUB
20118            1.920000   1.707000   0.000000   0.000000   0.000000  
; MANHOLE_PUB
20119            1.410000   1.979000   0.000000   0.000000   0.000000  
; MANHOLE_PUB
20120            1.730000   1.835000   0.000000   0.000000   0.000000  
; MANHOLE_PUB
20121            2.140000   1.479000   0.000000   0.000000   0.000000  
; MANHOLE_PUB
20122            2.540000   1.187000   0.000000   0.000000   0.000000  
; MANHOLE_PUB
20123            2.060000   1.575000   0.000000   0.000000   0.000000  
; MANHOLE_PUB
20124            2.210000   1.374000   0.000000   0.000000   0.000000  
; MANHOLE_PUB
20125            2.620000   1.161000   0.000000   0.000000   0.000000  
; MANHOLE_PUB
20126            2.110000   1.265000   0.000000   0.000000   0.000000  
; MANHOLE_PUB
20127            2.330000   0.404000   0.000000   0.000000   0.000000  
; MANHOLE_PUB
20128            2.640000   0.729000   0.000000   0.000000   0.000000  
; MANHOLE_PUB
20129            2.520000   0.995000   0.000000   0.000000   0.000000  
; MANHOLE_PUB
20130            2.440000   1.097000   0.000000   0.000000   0.000000  
; MANHOLE_PUB
20131            2.060000   1.406000   0.000000   0.000000   0.000000  
; MANHOLE_PUB
20132            1.640000   1.779000   0.000000   0.000000   0.000000  
; MANHOLE_PUB
20133            2.260000   0.754000   0.000000   0.000000   0.000000  
; MANHOLE_PUB
20134            2.550000   0.987000   0.000000   0.000000   0.000000  
; MANHOLE_PUB
20135            1.210000   2.206000   0.000000   0.000000   0.000000  
; MANHOLE_PUB
20136            1.460000   1.446000   0.000000   0.000000   0.000000  
; MANHOLE_PUB
20137            2.000000   0.244000   0.000000   0.000000   0.000000  
; MANHOLE_PUB
20138            2.730000   0.716000   0.000000   0.000000   0.000000  
; MANHOLE_PUB
20139            0.170000   2.784000   0.000000   0.000000   0.000000  
; MANHOLE_PUB
20140            0.510000   2.539000   0.000000   0.000000   0.000000  
; MANHOLE_PUB
20141            0.850000   2.211000   0.000000   0.000000   0.000000  
; MANHOLE_PUB
20142            1.480000   1.763000   0.000000   0.000000   0.000000  
; MANHOLE_PUB
20143            1.540000   1.302000   0.000000   0.000000   0.000000  
; MANHOLE_PUB
20144            2.010000   1.625000   0.000000   0.000000   0.000000  
; MANHOLE_PUB
20145            2.600000   0.919000   0.000000   0.000000   0.000000  
; MANHOLE_PUB
20146            2.330000   1.167000   0.000000   0.000000   0.000000  
; MANHOLE_PUB
20147            2.510000   1.084000   0.000000   0.000000   0.000000  
; MANHOLE_PUB
20148            2.550000   0.926000   0.000000   0.000000   0.000000  
; MANHOLE_PUB
20149            -0.550000  3.687000   0.000000   0.000000   0.000000  
; MANHOLE_PUB
20150            -0.340000  3.797000   0.000000   0.000000   0.000000  
; MANHOLE_PUB
20151            -0.180000  3.743000   0.000000   0.000000   0.000000  
; MANHOLE_PUB
20152            0.090000   3.430000   0.000000   0.000000   0.000000  
; MANHOLE_PUB
20153            1.270000   2.130000   0.000000   0.000000   0.000000  
; MANHOLE_PUB
20154            1.990000   1.516000   0.000000   0.000000   0.000000  
; MANHOLE_PUB
20155            2.190000   1.340000   0.000000   0.000000   0.000000  
; MANHOLE_PUB
20156            2.440000   1.185000   0.000000   0.000000   0.000000  
; MANHOLE_PUB
20157            2.420000   0.994000   0.000000   0.000000   0.000000  
; MANHOLE_PUB
20158            1.910000   1.518000   0.000000   0.000000   0.000000  
; MANHOLE_PUB
20159            2.340000   1.096000   0.000000   0.000000   0.000000  
; MANHOLE_PUB
20160            1.070000   2.025000   0.000000   0.000000   0.000000  
; MANHOLE_PUB
20161            1.580000   2.038000   0.000000   0.000000   0.000000  
; MANHOLE_PUB
20162            1.920000   1.799000   0.000000   0.000000   0.000000  
; MANHOLE_PUB
20163            2.610000   1.025000   0.000000   0.000000   0.000000  
; MANHOLE_PUB
20164            0.100000   2.768000   0.000000   0.000000   0.000000  
; MANHOLE_PUB
20165            0.310000   2.996000   0.000000   0.000000   0.000000  
; MANHOLE_PUB
20166            1.480000   1.838000   0.000000   0.000000   0.000000  
; MANHOLE_PUB
20167            -0.170000  3.679000   0.000000   0.000000   0.000000  
; MANHOLE_PUB
20168            -0.020000  3.445000   0.000000   0.000000   0.000000  
; MANHOLE_PUB
20169            0.540000   2.641000   0.000000   0.000000   0.000000  
; MANHOLE_PUB
20170            0.200000   3.156000   0.000000   0.000000   0.000000  
; MANHOLE_PUB
20171            0.420000   3.132000   0.000000   0.000000   0.000000  
; MANHOLE_PUB
20172            0.860000   2.406000   0.000000   0.000000   0.000000  
; MANHOLE_PUB
20173            1.590000   1.764000   0.000000   0.000000   0.000000  
; MANHOLE_PUB
20174            2.080000   1.314000   0.000000   0.000000   0.000000  
; MANHOLE_PUB
20175            1.100000   2.490000   0.000000   0.000000   0.000000  
; MANHOLE_PUB
20176            1.180000   2.418000   0.000000   0.000000   0.000000  
; MANHOLE_PUB
20177            1.930000   1.789000   0.000000   0.000000   0.000000  
; MANHOLE_PUB
20178            1.750000   1.994000   0.000000   0.000000   0.000000  
; MANHOLE_PUB
20179            2.550000   1.505000   0.000000   0.000000   0.000000  
; MANHOLE_PUB
20180            1.560000   1.710000   0.000000   0.000000   0.000000  
; MANHOLE_PUB
20181            2.080000   2.181000   0.000000   0.000000   0.000000  
; MANHOLE_PUB
20182            2.190000   2.343000   0.000000   0.000000   0.000000  
; MANHOLE_PUB
20183            2.410000   2.152000   0.000000   0.000000   0.000000  
; MANHOLE_PUB
20184            2.430000   1.228000   0.000000   0.000000   0.000000  
; MANHOLE_PUB
20185            2.560000   1.646000   0.000000   0.000000   0.000000  
; MANHOLE_PUB
20186            2.650000   1.529000   0.000000   0.000000   0.000000  
; MANHOLE_PUB
20187            3.240000   1.131000   0.000000   0.000000   0.000000  
; MANHOLE_PUB
20188            2.700000   1.329000   0.000000   0.000000   0.000000  
; MANHOLE_PUB
20189            2.860000   1.176000   0.000000   0.000000   0.000000  
; MANHOLE_PUB
20190            2.850000   1.510000   0.000000   0.000000   0.000000  
; MANHOLE_PUB
20191            3.000000   1.439000   0.000000   0.000000   0.000000  
; MANHOLE_PUB
20192            3.470000   1.642000   0.000000   0.000000   0.000000  
; MANHOLE_PUB
20193            3.890000   1.618000   0.000000   0.000000   0.000000  
; MANHOLE_PUB
20232            1.110000   1.467000   0.000000   0.000000   0.000000  
; MANHOLE_PUB
20233            1.360000   1.580000   0.000000   0.000000   0.000000  
; MANHOLE_PUB
20234            1.730000   1.628000   0.000000   0.000000   0.000000  
; MANHOLE_PUB
20235            1.840000   1.276000   0.000000   0.000000   0.000000  
; MANHOLE_PUB
20236            2.430000   0.879000   0.000000   0.000000   0.000000  
; MANHOLE_PUB
20237            2.060000   1.339000   0.000000   0.000000   0.000000  
; MANHOLE_PUB
20238            0.390000   2.713000   0.000000   0.000000   0.000000  
; MANHOLE_PUB
20239            0.690000   2.375000   0.000000   0.000000   0.000000  
; MANHOLE_PUB
20240            0.960000   1.967000   0.000000   0.000000   0.000000  
; MANHOLE_PUB
20241            2.030000   1.086000   0.000000   0.000000   0.000000  
; MANHOLE_PUB
20242            2.540000   0.992000   0.000000   0.000000   0.000000  
; MANHOLE_PUB
20243            1.990000   1.188000   0.000000   0.000000   0.000000  
; MANHOLE_PUB
20244            2.120000   1.009000   0.000000   0.000000   0.000000  
; MANHOLE_PUB
20245            2.260000   1.259000   0.000000   0.000000   0.000000  
; MANHOLE_PUB
20246            2.380000   1.104000   0.000000   0.000000   0.000000  
; MANHOLE_PUB
20247            2.030000   0.974000   0.000000   0.000000   0.000000  
; MANHOLE_PUB
20248            1.540000   1.341000   0.000000   0.000000   0.000000  
; MANHOLE_PUB
20249            0.940000   2.011000   0.000000   0.000000   0.000000  
; MANHOLE_PUB
20250            0.330000   2.552000   0.000000   0.000000   0.000000  
; MANHOLE_PUB
20251            -0.280000  3.920000   0.000000   0.000000   0.000000  
; MANHOLE_PUB
20252            0.010000   3.347000   0.000000   0.000000   0.000000  
; MANHOLE_PUB
20253            0.760000   2.717000   0.000000   0.000000   0.000000  
; MANHOLE_PUB
20254            2.530000   1.055000   0.000000   0.000000   0.000000  
; MANHOLE_PUB
20255            -0.140000  3.638000   0.000000   0.000000   0.000000  
; MANHOLE_PUB
20256            0.110000   3.545000   0.000000   0.000000   0.000000  
; MANHOLE_PUB
20257            0.360000   3.270000   0.000000   0.000000   0.000000  
; MANHOLE_PUB
20258            2.480000   1.098000   0.000000   0.000000   0.000000  
; MANHOLE_PUB
20259            2.050000   1.524000   0.000000   0.000000   0.000000  
; MANHOLE_PUB
20260            -0.260000  3.749000   0.000000   0.000000   0.000000  
; MANHOLE_PUB
20261            -1.010000  3.256000   0.000000   0.000000   0.000000  
; MANHOLE_PUB
20263            -0.600000  3.701000   0.000000   0.000000   0.000000  
; MANHOLE_PUB
20264            -0.670000  3.709000   0.000000   0.000000   0.000000  
; MANHOLE_PUB
20265            -0.720000  3.995000   0.000000   0.000000   0.000000  
; MANHOLE_PUB
20266            2.290000   1.401000   0.000000   0.000000   0.000000  
; MANHOLE_PUB
20267            1.810000   1.731000   0.000000   0.000000   0.000000  
; MANHOLE_PUB
20268            1.040000   2.465000   0.000000   0.000000   0.000000  
; MANHOLE_PUB
20296            -0.490000  3.820000   0.000000   0.000000   0.000000  
; MANHOLE_PUB
20297            -0.890000  3.958000   0.000000   0.000000   0.000000  
; MANHOLE_PUB
20298            0.790000   1.967000   0.000000   0.000000   0.000000  
; MANHOLE_PUB
20299            1.710000   0.884000   0.000000   0.000000   0.000000  
; MANHOLE_PUB
20300            -0.130000  3.220000   0.000000   0.000000   0.000000  
; MANHOLE_PUB
20301            0.160000   3.133000   0.000000   0.000000   0.000000  
; MANHOLE_PUB
20302            0.620000   2.419000   0.000000   0.000000   0.000000  
; MANHOLE_PUB