[TITLE]
;;Project Title/Notes

[OPTIONS]
;;Option             Value
FLOW_UNITS           GPM
INFILTRATION         HORTON
FLOW_ROUTING         DYNWAVE
LINK_OFFSETS         DEPTH
MIN_SLOPE            0
ALLOW_PONDING        NO
SKIP_STEADY_STATE    NO

START_DATE           01/01/2002
START_TIME           00:00:00
REPORT_START_DATE    01/01/2002
REPORT_START_TIME    00:00:00
END_DATE             01/01/2002
END_TIME             12:00:00
SWEEP_START          01/01
SWEEP_END            12/31
DRY_DAYS             5.000000
REPORT_STEP          00:05:00
WET_STEP             01:00:00
DRY_STEP             23:00:00
ROUTING_STEP         0:00:30 

INERTIAL_DAMPING     NONE
NORMAL_FLOW_LIMITED  BOTH
FORCE_MAIN_EQUATION  H-W
VARIABLE_STEP        0.75
LENGTHENING_STEP     10
MIN_SURFAREA         12.557
MAX_TRIALS           8
HEAD_TOLERANCE       0.001
SYS_FLOW_TOL         5
LAT_FLOW_TOL         5
MINIMUM_STEP         0
THREADS              1

[EVAPORATION]
;;Data Source    Parameters
;;-------------- ----------------
CONSTANT         0.0
DRY_ONLY         NO

[JUNCTIONS]
;;Name           Elevation  MaxDepth   InitDepth  SurDepth   Aponded   
;;-------------- ---------- ---------- ---------- ---------- ----------
; MH D37
1.00000          4008.110000 4.460000   0.000000   0.000000   0.000000  
; D6
10.00000         3986.260000 4.120000   0.000000   0.000000   0.000000  
; N25
100.00000        3969.120000 6.420000   0.000000   0.000000   0.000000  
; Tenaya Creek
1008             3971.000000 4.000000   0.000000   1000.000000 0.000000  
; J1
101.00000        3955.220000 11.080000  0.000000   0.000000   0.000000  
; N15
102.00000        3960.830000 5.030000   0.000000   0.000000   0.000000  
; New Manhole
1022             3957.700000 12.830000  0.000000   0.000000   0.000000  
; New Manhole
1024             3956.130000 9.450000   0.000000   0.000000   0.000000  
; New Manhole
1026             3956.478500 3.521500   0.000000   0.000000   0.000000  
; New Manhole
1028             3970.080000 8.120000   0.000000   0.000000   0.000000  
; New Manhole
1030             3967.300000 7.500000   0.000000   0.000000   0.000000  
; New Manhole
1032             3965.600000 8.000000   0.000000   0.000000   0.000000  
; New Manhole
1034             3963.600000 8.900000   0.000000   0.000000   0.000000  
; New Manhole
1036             3963.010000 11.590000  0.000000   0.000000   0.000000  
; N26
104.00000        3971.720000 6.460000   0.000000   0.000000   0.000000  
; F13
1040             3961.820000 13.580000  0.000000   0.000000   0.000000  
; New Manhole
1042             3961.420000 14.580000  0.000000   0.000000   0.000000  
; New Manhole
1052             3976.000000 4.000000   0.000000   1000.000000 0.000000  
; New Manhole
1054             3956.800000 9.440000   0.000000   0.000000   0.000000  
; New Manhole
1058             3955.900000 10.212000  0.000000   0.000000   0.000000  
; MH24
106.00000        3958.600000 3.300000   0.000000   0.000000   0.000000  
; New Manhole
1062             3971.320000 9.600000   0.000000   0.000000   0.000000  
; New Manhole
1064             3969.200000 8.080000   0.000000   0.000000   0.000000  
; New Manhole
1066             3966.700000 8.750000   0.000000   0.000000   0.000000  
; New Manhole
1068             3970.040000 8.900000   0.000000   0.000000   0.000000  
; MH K1B
107.00000        3956.110000 10.000000  0.000000   0.000000   0.000000  
; New Manhole
1070             3968.860000 8.020000   0.000000   0.000000   0.000000  
; New Manhole
1072             3966.640000 8.540000   0.000000   0.000000   0.000000  
; New Manhole
1074             3965.720000 8.550000   0.000000   0.000000   0.000000  
; New Manhole
1076             3964.610000 8.220000   0.000000   0.000000   0.000000  
; New Manhole
1078             3963.400000 8.640000   0.000000   0.000000   0.000000  
; N27
108.00000        3974.410000 4.280000   0.000000   0.000000   0.000000  
; New Manhole
1080             3962.140000 7.670000   0.000000   0.000000   0.000000  
; New Manhole
1084             3961.390000 6.940000   0.000000   0.000000   0.000000  
; New Manhole
1086             3960.740000 7.240000   0.000000   0.000000   0.000000  
; New Manhole
1088             3960.080000 7.670000   0.000000   0.000000   0.000000  
; New Manhole
1096             3955.740000 10.170000  0.000000   0.000000   0.000000  
; D34
11.00000         3995.980000 4.700000   0.000000   0.000000   0.000000  
; MH17B
110.00000        3969.708000 1.292000   0.000000   0.000000   0.000000  
; S3
1100             3965.170000 10.650000  0.000000   0.000000   0.000000  
; S5
1102             3967.660000 7.640000   0.000000   0.000000   0.000000  
; New Manhole
1106             3972.060000 1.840000   0.000000   0.000000   0.000000  
; S4
1114             3966.050000 9.450000   0.000000   0.000000   0.000000  
; New Manhole
1116             3974.560000 4.440000   0.000000   0.000000   0.000000  
; New Manhole
1118             3973.520000 5.480000   0.000000   0.000000   0.000000  
; New Manhole
1122             3970.680000 5.260000   0.000000   0.000000   0.000000  
; New Manhole
1124             3965.380000 5.830000   0.000000   0.000000   0.000000  
; New Manhole
1130             3954.780000 11.220000  0.000000   0.000000   0.000000  
; New Manhole
1132             3967.700000 4.300000   0.000000   0.000000   0.000000  
; S6
1134             3968.770000 3.230000   0.000000   0.000000   0.000000  
; S1
1136             3963.370000 15.630000  0.000000   0.000000   0.000000  
; S2
1138             3964.390000 11.410000  0.000000   0.000000   0.000000  
; F17
1140             3974.170000 7.830000   0.000000   0.000000   0.000000  
; New Manhole
1142             3971.850000 6.150000   0.000000   0.000000   0.000000  
; New Manhole
1144             3971.320000 6.680000   0.000000   0.000000   0.000000  
; New Manhole
1148             3962.250000 8.750000   0.000000   0.000000   0.000000  
; New Manhole
1150             3961.760000 9.240000   0.000000   0.000000   0.000000  
; New Manhole
1152             3978.800000 6.200000   0.000000   0.000000   0.000000  
; New Manhole
1156             3967.960000 7.740000   0.000000   0.000000   0.000000  
; New Manhole
1158             3967.920000 8.080000   0.000000   0.000000   0.000000  
; New Manhole
1160             3956.470000 8.530000   0.000000   0.000000   0.000000  
; New Manhole
1162             3959.000000 3.000000   0.000000   0.000000   0.000000  
; New Manhole
1164             3957.200000 6.700000   0.000000   0.000000   0.000000  
; New Manhole
1170             3962.740000 7.260000   0.000000   0.000000   0.000000  
; F22
1172             3970.960000 8.040000   0.000000   0.000000   0.000000  
; New Manhole
1174             3970.540000 6.960000   0.000000   0.000000   0.000000  
; New Manhole
1176             3970.230000 7.270000   0.000000   0.000000   0.000000  
; New Manhole
1178             3968.950000 8.050000   0.000000   0.000000   0.000000  
; MH17A
118.00000        3969.120000 9.420000   0.000000   0.000000   0.000000  
; F14
1180             3965.630000 14.370000  0.000000   0.000000   0.000000  
; New Manhole
1182             3968.150000 8.850000   0.000000   0.000000   0.000000  
; F16
1186             3972.810000 8.190000   0.000000   0.000000   0.000000  
; New Manhole
1190             3974.380000 3.620000   0.000000   0.000000   0.000000  
; New Manhole
1192             3971.640000 6.360000   0.000000   0.000000   0.000000  
; New Manhole
1194             3970.910000 8.090000   0.000000   0.000000   0.000000  
; New Manhole
1196             3970.380000 8.620000   0.000000   0.000000   0.000000  
; New Manhole
1198             3973.570000 3.430000   0.000000   0.000000   0.000000  
; C16
12.00000         4032.967660 17.032340  0.000000   0.000000   0.000000  
; New Manhole
1200             3970.970000 7.030000   0.000000   0.000000   0.000000  
; S7
1204             3969.160000 2.840000   0.000000   0.000000   0.000000  
; MH17
129.00000        3967.080000 4.420000   0.000000   0.000000   0.000000  
; C55
13.00000         3973.920000 3.750000   0.000000   0.000000   0.000000  
; N4
134.00000        3948.560000 8.920000   0.000000   0.000000   0.000000  
; MH18
139.00000        3964.340000 4.660000   0.000000   0.000000   0.000000  
; C134
14.00000         4049.280000 5.000000   0.000000   0.000000   0.000000  
; N3
142.00000        3947.950000 9.250000   0.000000   0.000000   0.000000  
; MH13 NEW
145.00000        3949.710000 9.790000   0.000000   0.000000   0.000000  
; N2
146.00000        3947.850000 10.000000  0.000000   0.000000   0.000000  
; MH12
149.00000        3949.920000 9.880000   0.000000   0.000000   0.000000  
; C15
15.00000         4032.520000 8.000000   0.000000   0.000000   0.000000  
; MH31
152.00000        3947.740000 11.160000  0.000000   0.000000   0.000000  
; MH32A
154.00000        3947.120000 11.580000  0.000000   0.000000   0.000000  
; MH11
157.00000        3950.654100 8.330000   0.000000   0.000000   0.000000  
; MH 19
159.00000        3956.730000 6.660000   0.000000   0.000000   0.000000  
; MHD33A (Old MH D35)
16.00000         4010.800000 2.580000   0.000000   0.000000   0.000000  
; MH D1A
160.00000        3960.260000 4.580000   0.000000   0.000000   0.000000  
; MH19A
161.00000        3966.220000 2.880000   0.000000   0.000000   0.000000  
; MH19B
163.00000        3960.626000 2.374000   0.000000   0.000000   0.000000  
; MH27
164.00000        3955.830000 4.790000   0.000000   0.000000   0.000000  
; MH D1
165.00000        3956.120000 7.460000   0.000000   0.000000   0.000000  
; MH32B
166.00000        3954.220998 5.779002   0.000000   0.000000   0.000000  
; D41
17.00000         3986.550000 2.420000   0.000000   0.000000   0.000000  
; MH10
172.00000        3951.583600 8.660000   0.000000   0.000000   0.000000  
; MH9
174.00000        3952.055500 8.840000   0.000000   0.000000   0.000000  
; MH8
176.00000        3952.312502 10.438898  0.000000   0.000000   0.000000  
; H22
178.00000        3958.940000 6.000000   0.000000   0.000000   0.000000  
; D33
18.00000         3990.460000 5.330000   0.000000   0.000000   0.000000  
; MH7 NEW
182.00000        3952.631294 10.868706  0.000000   0.000000   0.000000  
; P3
183.00000        3964.500000 6.520000   0.000000   0.000000   0.000000  
; H21
184.00000        3957.610000 6.660000   0.000000   0.000000   0.000000  
; MH6A
185.00000        3952.805020 10.794980  0.000000   0.000000   0.000000  
; H2
186.00000        3957.040000 8.540000   0.000000   0.000000   0.000000  
; MH6 NEW
188.00000        3953.155382 10.644618  0.000000   0.000000   0.000000  
; H23
189.00000        3960.069788 5.430212   0.000000   0.000000   0.000000  
; D5
19.00000         3976.650000 6.200000   0.000000   0.000000   0.000000  
; H24
190.00000        3958.890000 5.290000   0.000000   0.000000   0.000000  
; MH5 NEW
191.00000        3953.711100 12.788900  0.000000   0.000000   0.000000  
; P4
194.00000        3970.060000 6.000000   0.000000   0.000000   0.000000  
; H25
195.00000        3961.010000 4.750000   0.000000   0.000000   0.000000  
; MH4 NEW
196.00000        3954.210250 11.989750  0.000000   0.000000   0.000000  
; MH1
198.00000        3976.040000 3.620000   0.000000   0.000000   0.000000  
; H3
199.00000        3966.350000 5.540000   0.000000   0.000000   0.000000  
; Lamphole
2.00000          4013.169240 4.530760   0.000000   0.000000   0.000000  
; C133
20.00000         4038.400000 4.080000   0.000000   0.000000   0.000000  
; MH3 NEW
202.00000        3954.576596 9.923404   0.000000   0.000000   0.000000  
; P5
203.00000        3971.400000 5.000000   0.000000   0.000000   0.000000  
; MH2 NEW
205.00000        3954.895850 8.604150   0.000000   0.000000   0.000000  
; MHP5A
207.00000        3972.260000 5.840000   0.000000   0.000000   0.000000  
; MH1B NEW (Old MH2)
208.00000        3958.610000 4.790000   0.000000   0.000000   0.000000  
; P6
209.00000        3972.720000 5.980000   0.000000   0.000000   0.000000  
; D32
21.00000         3983.960000 7.790000   0.000000   0.000000   0.000000  
; MH1A NEW
210.00000        3956.540000 4.660000   0.000000   0.000000   0.000000  
; MHP6A
211.00000        3973.280000 5.250000   0.000000   0.000000   0.000000  
; P7
212.00000        3973.850000 5.620000   0.000000   0.000000   0.000000  
; F131
213.00000        3967.460000 7.440000   0.000000   0.000000   0.000000  
; MHP91
216.00000        3978.885000 4.115000   0.000000   0.000000   0.000000  
; F132
217.00000        3968.370000 9.870000   0.000000   0.000000   0.000000  
; P8
218.00000        3974.880000 6.920000   0.000000   0.000000   0.000000  
; F133
219.00000        3969.660000 7.830000   0.000000   0.000000   0.000000  
; C132
22.00000         4027.220000 5.080000   0.000000   0.000000   0.000000  
; P9
220.00000        3975.620000 6.500000   0.000000   0.000000   0.000000  
; F134
221.00000        3971.280000 8.990000   0.000000   0.000000   0.000000  
; F135
222.00000        3973.700000 4.930000   0.000000   0.000000   0.000000  
; R1
224.00000        3976.300000 6.270000   0.000000   0.000000   0.000000  
; F16
225.00000        3966.620000 12.580000  0.000000   0.000000   0.000000  
; R2
226.00000        3979.450000 2.390000   0.000000   0.000000   0.000000  
; F17
227.00000        3974.310000 4.660000   0.000000   0.000000   0.000000  
; F136
228.00000        3979.400000 4.540000   0.000000   0.000000   0.000000  
; P10
229.00000        3976.980000 6.080000   0.000000   0.000000   0.000000  
; D35
23.00000         4027.530000 4.500000   0.000000   0.000000   0.000000  
; F17A
230.00000        3974.890000 4.000000   0.000000   0.000000   0.000000  
; F20
231.00000        3972.000000 6.280000   0.000000   0.000000   0.000000  
; R3
232.00000        3982.190000 6.740000   0.000000   0.000000   0.000000  
; F19
233.00000        3976.070000 1.460000   0.000000   0.000000   0.000000  
; F18
234.00000        3974.710000 4.320000   0.000000   0.000000   0.000000  
; F181
235.00000        3975.369165 4.090835   0.000000   0.000000   0.000000  
; F21
236.00000        3977.880000 1.830000   0.000000   0.000000   0.000000  
; F22
237.00000        3979.490000 3.510000   0.000000   0.000000   0.000000  
; R4
238.00000        3984.930000 7.470000   0.000000   0.000000   0.000000  
; P11
239.00000        3978.880000 5.750000   0.000000   0.000000   0.000000  
; C14
24.00000         4013.010076 14.989924  0.000000   0.000000   0.000000  
; R5
240.00000        3987.670000 6.870000   0.000000   0.000000   0.000000  
; P12
241.00000        3980.130000 5.640000   0.000000   0.000000   0.000000  
; R6
242.00000        3990.410000 5.470000   0.000000   0.000000   0.000000  
; P13
243.00000        3983.200000 5.500000   0.000000   0.000000   0.000000  
; P14
245.00000        3988.840000 5.540000   0.000000   0.000000   0.000000  
; P14A
246.00000        3991.240000 7.420000   0.000000   0.000000   0.000000  
; P15
248.00000        3993.940000 6.160000   0.000000   0.000000   0.000000  
; P16
249.00000        3998.060000 6.700000   0.000000   0.000000   0.000000  
; C54
25.00000         3969.498479 4.621521   0.000000   0.000000   0.000000  
; P17
251.00000        4002.040000 8.620000   0.000000   0.000000   0.000000  
; P18
252.00000        4011.000000 4.750000   0.000000   0.000000   0.000000  
; MH 18A
253.00000        4013.240000 3.660000   0.000000   0.000000   0.000000  
; P19
254.00000        4015.350000 4.660000   0.000000   0.000000   0.000000  
; P201
255.00000        4019.740000 1.920000   0.000000   0.000000   0.000000  
; P21
256.00000        4024.220000 3.040000   0.000000   0.000000   0.000000  
; P22
257.00000        4025.780000 3.120000   0.000000   0.000000   0.000000  
; P23
258.00000        4034.070000 4.000000   0.000000   0.000000   0.000000  
; P24
259.00000        4035.640000 3.660000   0.000000   0.000000   0.000000  
; MH C103 (Wye CO broken)
26.00000         3994.371067 16.018933  0.000000   0.000000   0.000000  
; P25
260.00000        4043.240000 3.750000   0.000000   0.000000   0.000000  
; P26
261.00000        4052.350000 3.750000   0.000000   0.000000   0.000000  
; P27
262.00000        4066.490000 2.920000   0.000000   0.000000   0.000000  
; P28
263.00000        4086.230000 3.660000   0.000000   0.000000   0.000000  
; P29
264.00000        4095.000000 2.790000   0.000000   0.000000   0.000000  
; P30
265.00000        4100.060000 3.120000   0.000000   0.000000   0.000000  
; P31
266.00000        4119.190000 3.080000   0.000000   0.000000   0.000000  
; P32
267.00000        4145.560000 3.000000   0.000000   0.000000   0.000000  
; P33
268.00000        4148.176000 4.500000   0.000000   0.000000   0.000000  
; P33A
269.00000        4148.621100 11.878900  0.000000   0.000000   0.000000  
; D31
27.00000         3980.630000 4.750000   0.000000   0.000000   0.000000  
; P34
270.00000        4165.500000 3.330000   0.000000   0.000000   0.000000  
; P34A
271.00000        4165.770780 11.029220  0.000000   0.000000   0.000000  
; P34B (Paved Over)
272.00000        4166.064062 19.435938  0.000000   0.000000   0.000000  
; P35
273.00000        4187.150000 2.660000   0.000000   0.000000   0.000000  
; P36
274.00000        4194.030000 1.700000   0.000000   0.000000   0.000000  
; P37
275.00000        4194.806543 5.043456   0.000000   0.000000   0.000000  
; P38
276.00000        4201.970000 4.040000   0.000000   0.000000   0.000000  
; C131
28.00000         4013.540000 3.920000   0.000000   0.000000   0.000000  
; C13
29.00000         4012.270000 4.500000   0.000000   0.000000   0.000000  
; C171
3.00000          4069.660000 7.540000   0.000000   0.000000   0.000000  
; C53
30.00000         3968.610000 4.100000   0.000000   0.000000   0.000000  
; D4
31.00000         3974.560000 3.120000   0.000000   0.000000   0.000000  
; Cleanout
32.00000         3994.076009 10.113991  0.000000   0.000000   0.000000  
; C12
33.00000         4004.220000 4.000000   0.000000   0.000000   0.000000  
; C52
34.00000         3967.580000 4.000000   0.000000   0.000000   0.000000  
; C102
35.00000         3993.440000 4.330000   0.000000   0.000000   0.000000  
; G5
36.00000         4006.480000 5.200000   0.000000   0.000000   0.000000  
; MHD3A
37.00000         3973.184854 4.415146   0.000000   0.000000   0.000000  
; D35A
38.00000         3980.934517 12.345483  0.000000   0.000000   0.000000  
; E6
39.00000         3986.400000 3.860000   0.000000   0.000000   0.000000  
; D43
4.00000          3999.660000 4.330000   0.000000   0.000000   0.000000  
; C101
40.00000         3992.640000 4.750000   0.000000   0.000000   0.000000  
; NODE104
404.00000        3974.974231 5.025769   0.000000   0.000000   0.000000  
; G3
41.00000         3984.710000 4.040000   0.000000   0.000000   0.000000  
; MH G4A (Buried)
42.00000         3986.993422 8.006578   0.000000   0.000000   0.000000  
; K31
43.00000         4001.570000 4.840000   0.000000   0.000000   0.000000  
; D3
44.00000         3972.570000 4.980000   0.000000   0.000000   0.000000  
; G4
45.00000         3986.590000 3.000000   0.000000   0.000000   0.000000  
; C11
46.00000         3986.690000 6.880000   0.000000   0.000000   0.000000  
; K7
47.00000         3984.875880 7.124120   0.000000   0.000000   0.000000  
; D22
48.00000         3977.100000 1.700000   0.000000   0.000000   0.000000  
; K6
49.00000         3980.400000 4.120000   0.000000   0.000000   0.000000  
; C161
5.00000          4033.600086 26.399914  0.000000   0.000000   0.000000  
; E5
50.00000         3981.380000 3.000000   0.000000   0.000000   0.000000  
; MH K23 (Paint Spot on Pavement)
51.00000         3977.710973 22.289027  0.000000   0.000000   0.000000  
; E4
52.00000         3980.230000 2.540000   0.000000   0.000000   0.000000  
; J5
54.00000         3981.369000 7.290000   0.000000   0.000000   0.000000  
; D21
55.00000         3972.700000 3.040000   0.000000   0.000000   0.000000  
; C10
56.00000         3977.500000 8.500000   0.000000   0.000000   0.000000  
; K5
58.00000         3978.350000 5.330000   0.000000   0.000000   0.000000  
; D2
59.00000         3969.660000 4.390000   0.000000   0.000000   0.000000  
; C18
6.00000          4070.750000 5.000000   0.000000   0.000000   0.000000  
; E3
60.00000         3975.890000 3.420000   0.000000   0.000000   0.000000  
; K22
61.00000         3976.590000 3.840000   0.000000   0.000000   0.000000  
; K4
62.00000         3973.704500 6.295500   0.000000   0.000000   0.000000  
; C9
63.00000         3974.280000 3.620000   0.000000   0.000000   0.000000  
; K3
64.00000         3972.470000 4.370000   0.000000   0.000000   0.000000  
; J4
65.00000         3974.373000 5.075000   0.000000   0.000000   0.000000  
; K21
66.00000         3972.790000 4.160000   0.000000   0.000000   0.000000  
; C8
67.00000         3967.290000 5.500000   0.000000   0.000000   0.000000  
; J3A
69.00000         3965.908944 8.091056   0.000000   0.000000   0.000000  
; C17
7.00000          4057.980000 6.000000   0.000000   0.000000   0.000000  
; MH Grease Trap Ahw0
72.00000         3968.485930 4.184070   0.000000   0.000000   0.000000  
; MH Grease Trap Ahw1
73.00000         3968.452003 4.577997   0.000000   0.000000   0.000000  
; K2
74.00000         3966.430000 3.750000   0.000000   0.000000   0.000000  
; MH Grease Trap Ahw2
75.00000         3968.402074 3.917926   0.000000   0.000000   0.000000  
; N212
76.00000         3968.140000 4.050000   0.000000   0.000000   0.000000  
; MH23B
77.00000         3966.600000 4.500000   0.000000   0.000000   0.000000  
; D42
8.00000          3993.960000 3.370000   0.000000   0.000000   0.000000  
; J21
80.00000         3964.650000 6.160000   0.000000   0.000000   0.000000  
; J3
81.00000         3965.067000 4.550000   0.000000   0.000000   0.000000  
; J2
83.00000         3962.137000 4.960000   0.000000   0.000000   0.000000  
; MH K1A
84.00000         3963.908240 1.091760   0.000000   0.000000   0.000000  
; K1
85.00000         3963.500000 4.660000   0.000000   0.000000   0.000000  
; MH N151
86.00000         3962.030000 3.970000   0.000000   0.000000   0.000000  
; MH23
87.00000         3961.940000 3.660000   0.000000   0.000000   0.000000  
; N21
89.00000         3963.520000 7.960000   0.000000   0.000000   0.000000  
; MH D36
9.00000          3996.580000 3.660000   0.000000   0.000000   0.000000  
; MH23A
91.00000         3959.629500 5.370500   0.000000   0.000000   0.000000  
912              3965.900000 6.100000   0.000000   0.000000   0.000000  
; New Manhole
914              3958.990000 4.040000   0.000000   0.000000   0.000000  
916              3961.600000 4.000000   0.000000   0.000000   0.000000  
918              3949.270000 17.050000  0.000000   0.000000   0.000000  
920              3960.000000 5.800000   0.000000   0.000000   0.000000  
930              3962.790000 3.910000   0.000000   0.000000   0.000000  
; New Manhole
934              3965.300000 6.800000   0.000000   0.000000   0.000000  
; transfer center
940              3958.320000 8.000000   0.000000   1000.000000 0.000000  
952              3977.930000 6.070000   0.000000   0.000000   0.000000  
; ahwahnee
954              3968.000000 4.190000   0.000000   1000.000000 0.000000  
; LOWER PINES
958              3963.920000 7.100000   0.000000   1000.000000 0.000000  
; N22
96.00000         3964.090000 7.780000   0.000000   0.000000   0.000000  
962              3970.300000 10.630000  0.000000   0.000000   0.000000  
964              3969.260000 11.980000  0.000000   0.000000   0.000000  
; N24
97.00000         3966.800000 6.000000   0.000000   0.000000   0.000000  
970              3954.970000 7.100000   0.000000   0.000000   0.000000  
; Curry Village
974              3968.000000 7.000000   0.000000   1000.000000 0.000000  
976              3967.290000 9.770000   0.000000   0.000000   0.000000  
; N23
98.00000         3965.760000 6.700000   0.000000   0.000000   0.000000  
980              3955.290000 7.000000   0.000000   1000.000000 0.000000  
990              3990.360000 7.100000   0.000000   0.000000   0.000000  
992              3986.740000 6.470000   0.000000   0.000000   0.000000  
994              3983.110000 8.100000   0.000000   0.000000   0.000000  
996              3979.490000 7.890000   0.000000   0.000000   0.000000  
998              3971.000000 4.000000   0.000000   0.000000   0.000000  

[OUTFALLS]
;;Name           Elevation  Type       Stage Data       Gated    Route To        
;;-------------- ---------- ---------- ---------------- -------- ----------------
; (e) N15
1146             3955.490000 FREE                        NO                       
; MH32
156.00000        3945.250000 FREE                        NO                       

[STORAGE]
;;Name           Elev.    MaxDepth   InitDepth  Shape      Curve Name/Params            N/A      Fevap    Psi      Ksat     IMD     
;;-------------- -------- ---------- ----------- ---------- ---------------------------- -------- --------          -------- --------
; Transfer Center
9010             3946.330000 2.950000   2.950000   FUNCTIONAL 0.000000  0.000000  452.389342 0.000000 0.000000
; Ahwahnee
9012             3955.750000 17.000000  3.810000   FUNCTIONAL 0.000000  0.000000  78.539816 0.000000 0.000000
; LOWER PINES
9014             3958.860000 4.560000   4.560000   FUNCTIONAL 0.000000  0.000000  28.274334 0.000000 0.000000
; Curry Village
9016             3955.820000 6.300000   1.000000   FUNCTIONAL 0.000000  0.000000  50.265482 0.000000 0.000000
; Housekeeping
9018             3949.910000 4.780000   4.780000   FUNCTIONAL 0.000000  0.000000  28.274334 0.000000 0.000000
; Tenaya Creek
9020             3967.730000 1.670000   1.670000   FUNCTIONAL 0.000000  0.000000  7.068583 0.000000 0.000000
; New Wet Well
9026             3957.000000 5.000000   1.000000   FUNCTIONAL 0.000000  0.000000  28.274334 0.000000 0.000000

[CONDUITS]
;;Name           From Node        To Node          Length     Roughness  InOffset   OutOffset  InitFlow   MaxFlow   
;;-------------- ---------------- ---------------- ---------- ---------- ---------- ---------- ---------- ----------
10002            213.00000        1042             52.000000  0.013000   0.000000   5.290000   0.000000   0.000000  
10004            1178             1182             236.800000 0.013000   0.000000   0.100000   0.000000   0.000000  
10006            976              225.00000        192.500000 0.013000   0.000000   0.100000   0.000000   0.000000  
10014            980              970              794.027167 0.010000   0.000000   0.100000   0.000000   0.000000  
10020            990              992              283.376000 0.013000   0.000000   0.100000   0.000000   0.000000  
10022            992              994              189.122600 0.013000   0.000000   0.100000   0.000000   0.000000  
10024            994              996              418.357000 0.013000   0.000000   0.100000   0.000000   0.000000  
10026            996              1142             828.340000 0.013000   0.000000   0.080000   0.000000   0.000000  
10028            1008             108.00000        1699.702800 0.010000   0.000000   0.100000   0.000000   0.000000  
10034            998              9020             20.000000  0.013000   0.000000   0.000000   0.000000   0.000000  
1007.00000       45.00000         41.00000         148.230372 0.013000   0.000000   0.080000   0.000000   0.000000  
1008.00000       41.00000         952              174.487400 0.013000   0.000000   0.100000   0.000000   0.000000  
1009.00000       42.00000         45.00000         61.643064  0.013000   0.000000   0.200000   0.000000   0.000000  
1018.00000       98.00000         96.00000         323.796300 0.013000   0.000000   0.780000   0.000000   0.000000  
1019.00000       104.00000        100.00000        304.583478 0.013000   0.000000   0.050000   0.000000   0.000000  
1030.00000       97.00000         98.00000         342.609700 0.013000   0.000000   0.040000   0.000000   0.000000  
; New Pipe
10300            920              918              1169.627156 0.013000   0.100000   4.030000   0.000000   0.000000  
; New Pipe
10308            1022             152.00000        2407.048800 0.010000   5.789300   0.000000   0.000000   0.000000  
1031.00000       100.00000        97.00000         268.556905 0.013000   0.000000   0.080000   0.000000   0.000000  
; New Pipe
10316            186.00000        1024             31.132904  0.013000   0.000000   0.000000   0.000000   0.000000  
; New Pipe
10318            1024             9018             14.766800  0.013000   0.000000   0.000000   0.000000   0.000000  
; New Pipe
10322            1026             9018             146.223500 0.013000   0.000000   0.128700   0.000000   0.000000  
; New Pipe
10324            1028             1030             286.388600 0.013000   0.000000   0.000000   0.000000   0.000000  
; New Pipe
10326            1030             1032             307.475600 0.013000   0.000000   0.000000   0.000000   0.000000  
; New Pipe
10328            1032             1034             324.452500 0.013000   0.000000   0.000000   0.000000   0.000000  
; New Pipe
10330            1034             1036             177.085800 0.013000   0.000000   0.000000   0.000000   0.000000  
; New Pipe
10332            1036             1040             31.420800  0.013000   0.000000   1.080000   0.000000   0.000000  
; New Pipe
10334            1040             1042             34.890000  0.013000   0.000000   0.000000   0.000000   0.000000  
; New Pipe
10336            1042             9016             30.000000  0.013000   0.000000   0.000000   0.000000   0.000000  
; New Pipe
10342            107.00000        1058             79.000000  0.013000   0.000000   0.100000   0.000000   0.000000  
; New Pipe
10346            1054             1160             165.300000 0.013000   0.000000   0.100000   0.000000   0.000000  
; New Pipe