[TITLE]
;;Project Title/Notes

[OPTIONS]
;;Option             Value
FLOW_UNITS           LPS
INFILTRATION         HORTON
FLOW_ROUTING         DYNWAVE
LINK_OFFSETS         DEPTH
MIN_SLOPE            0
ALLOW_PONDING        NO
SKIP_STEADY_STATE    NO

START_DATE           06/01/2009
START_TIME           22:00:00
REPORT_START_DATE    06/01/2009
REPORT_START_TIME    22:00:00
END_DATE             06/03/2009
END_TIME             00:00:00
SWEEP_START          01/01
SWEEP_END            12/31
DRY_DAYS             5.000000
REPORT_STEP          00:05:00
WET_STEP             01:00:00
DRY_STEP             23:59:00
ROUTING_STEP         0:00:10 

INERTIAL_DAMPING     PARTIAL
NORMAL_FLOW_LIMITED  BOTH
FORCE_MAIN_EQUATION  H-W
VARIABLE_STEP        0.00
LENGTHENING_STEP     10
MIN_SURFAREA         1.14
MAX_TRIALS           8
HEAD_TOLERANCE       0.0015
SYS_FLOW_TOL         5
LAT_FLOW_TOL         5
MINIMUM_STEP         0.5
THREADS              1

[EVAPORATION]
;;Data Source    Parameters
;;-------------- ----------------
CONSTANT         0.0
DRY_ONLY         NO

[JUNCTIONS]
;;Name           Elevation  MaxDepth   InitDepth  SurDepth   Aponded   
;;-------------- ---------- ---------- ---------- ---------- ----------
GM-B30-01        0.152000   2.230000   0.000000   0.000000   0.000000  
; New Junction
GM-B38-01        46.000000  5.000000   0.000000   0.000000   0.000000  
; New Junction
GM-B38-02        35.000000  5.000000   0.000000   0.000000   0.000000  
; New Junction
GM-B38-03        2.800000   1.700000   0.000000   0.000000   0.000000  
GM-B38-04        -1.042000  3.000000   0.000000   10.000000  0.000000  
; DUMMYNODE_B40
GM-B40-01        2.200000   0.800000   0.000000   0.000000   0.000000  
; EL09197
GM-B45-01        2.500000   1.000000   0.000000   0.000000   0.000000  
; RM-B01-01
RM-B01-01        2.420000   0.000000   0.000000   100.000000 0.000000  
; RM-B02-01
RM-B02-01        3.120000   0.000000   0.000000   100.000000 0.000000  
; RM-B03-01
RM-B03-01        2.800000   0.000000   0.000000   100.000000 0.000000  
; RM-B03-02
RM-B03-02        2.800000   0.000000   0.000000   100.000000 0.000000  
; RM-B03-03
RM-B03-03        2.800000   0.000000   0.000000   100.000000 0.000000  
; RM-B03-04
RM-B03-04        1.800000   0.000000   0.000000   100.000000 0.000000  
; RM-B03-05
RM-B03-05        1.800000   0.000000   0.000000   100.000000 0.000000  
; RM-B03-06
RM-B03-06        1.800000   0.000000   0.000000   100.000000 0.000000  
; RM-B03-07
RM-B03-07        1.800000   0.000000   0.000000   100.000000 0.000000  
; RM-B04-01
RM-B04-01        1.800000   0.000000   0.000000   100.000000 0.000000  
; RM-B04-02
RM-B04-02        1.800000   0.000000   0.000000   100.000000 0.000000  
; RM-B04-03
RM-B04-03        1.800000   0.000000   0.000000   100.000000 0.000000  
; RM-B04-04
RM-B04-04        1.800000   0.000000   0.000000   100.000000 0.000000  
; RM-B04-05
RM-B04-05        1.800000   0.000000   0.000000   100.000000 0.000000  
; RM-B04-06
RM-B04-06        1.800000   0.000000   0.000000   100.000000 0.000000  
; RM-B04-07
RM-B04-07        1.800000   0.000000   0.000000   100.000000 0.000000  
; RM-B04-08
RM-B04-08        1.800000   0.000000   0.000000   100.000000 0.000000  
; RM-B04-09
RM-B04-09        1.800000   0.000000   0.000000   100.000000 0.000000  
; RM-B04-10
RM-B04-10        2.000000   0.000000   0.000000   100.000000 0.000000  
; RM-B04-11
RM-B04-11        2.200000   0.000000   0.000000   100.000000 0.000000  
; RM-B04-12
RM-B04-12        2.400000   0.000000   0.000000   100.000000 0.000000  
; RM-B04-13
RM-B04-13        2.600000   0.000000   0.000000   100.000000 0.000000  
; RM-B04-14
RM-B04-14        2.800000   0.000000   0.000000   100.000000 0.000000  
; RM-B04-15
RM-B04-15        2.800000   0.000000   0.000000   100.000000 0.000000  
; RM-B04-16
RM-B04-16        2.800000   0.000000   0.000000   100.000000 0.000000  
; RM-B04-17
RM-B04-17        2.800000   0.000000   0.000000   100.000000 0.000000  
; RM-B04-18
RM-B04-18        2.800000   0.000000   0.000000   100.000000 0.000000  
; RM-B04-19
RM-B04-19        2.800000   0.000000   0.000000   100.000000 0.000000  
; RM-B04-20
RM-B04-20        2.800000   0.000000   0.000000   100.000000 0.000000  
; RM-B04-21
RM-B04-21        2.800000   0.000000   0.000000   100.000000 0.000000  
; RM-B04-22
RM-B04-22        2.300000   0.000000   0.000000   100.000000 0.000000  
; RM-B04-23
RM-B04-23        2.000000   0.000000   0.000000   100.000000 0.000000  
; RM-B04-24
RM-B04-24        1.800000   0.000000   0.000000   100.000000 0.000000  
; RM-B04-25
RM-B04-25        1.800000   0.000000   0.000000   100.000000 0.000000  
; RM-B04-26
RM-B04-26        1.800000   0.000000   0.000000   100.000000 0.000000  
; RM-B04-27
RM-B04-27        1.800000   0.000000   0.000000   100.000000 0.000000  
; RM-B04-28
RM-B04-28        1.800000   0.000000   0.000000   100.000000 0.000000  
; RM-B04-29
RM-B04-29        1.800000   0.000000   0.000000   100.000000 0.000000  
; RM-B04-30
RM-B04-30        2.400000   0.000000   0.000000   100.000000 0.000000  
; RM-B05-01
RM-B05-01        1.800000   0.000000   0.000000   100.000000 0.000000  
; RM-B05-02
RM-B05-02        1.800000   0.000000   0.000000   100.000000 0.000000  
; RM-B05-03
RM-B05-03        1.800000   0.000000   0.000000   100.000000 0.000000  
; RM-B05-04
RM-B05-04        1.800000   0.000000   0.000000   100.000000 0.000000  
; RM-B05-05
RM-B05-05        1.800000   0.000000   0.000000   100.000000 0.000000  
; RM-B05-06
RM-B05-06        1.800000   0.000000   0.000000   100.000000 0.000000  
; RM-B05-07
RM-B05-07        2.400000   0.000000   0.000000   100.000000 0.000000  
; RM-B06-01
RM-B06-01        1.700000   0.000000   0.000000   100.000000 0.000000  
; RM-B06-02
RM-B06-02        1.700000   0.000000   0.000000   100.000000 0.000000  
; RM-B06-03
RM-B06-03        1.700000   0.000000   0.000000   100.000000 0.000000  
; RM-B06-04
RM-B06-04        1.700000   0.000000   0.000000   100.000000 0.000000  
; RM-B07-01
RM-B07-01        1.800000   0.000000   0.000000   100.000000 0.000000  
; RM-B07-02
RM-B07-02        1.800000   0.000000   0.000000   100.000000 0.000000  
; RM-B07-03
RM-B07-03        -1.200000  0.000000   0.000000   100.000000 0.000000  
; RM-B07-04
RM-B07-04        1.800000   0.000000   0.000000   100.000000 0.000000  
; RM-B07-05
RM-B07-05        1.800000   0.000000   0.000000   100.000000 0.000000  
; RM-B07-06
RM-B07-06        1.800000   0.000000   0.000000   100.000000 0.000000  
; RM-B07-07
RM-B07-07        1.800000   0.000000   0.000000   100.000000 0.000000  
; RM-B07-08
RM-B07-08        1.800000   0.000000   0.000000   100.000000 0.000000  
; RM-B08-01
RM-B08-01        1.500000   0.000000   0.000000   100.000000 0.000000  
; RM-B08-02
RM-B08-02        1.500000   0.000000   0.000000   100.000000 0.000000  
; RM-B08-03
RM-B08-03        1.500000   0.000000   0.000000   100.000000 0.000000  
; RM-B08-04
RM-B08-04        1.500000   0.000000   0.000000   100.000000 0.000000  
; RM-B08-05
RM-B08-05        0.800000   0.000000   0.000000   100.000000 0.000000  
; RM-B08-06
RM-B08-06        0.800000   0.000000   0.000000   100.000000 0.000000  
; RM-B08-07
RM-B08-07        1.500000   0.000000   0.000000   100.000000 0.000000  
; RM-B08-08
RM-B08-08        2.000000   0.000000   0.000000   100.000000 0.000000  
; RM-B08-09
RM-B08-09        2.400000   0.000000   0.000000   100.000000 0.000000  
; RM-B08-10
RM-B08-10        1.800000   0.000000   0.000000   100.000000 0.000000  
; RM-B09-01
RM-B09-01        0.000000   0.000000   0.000000   100.000000 0.000000  
; RM-B09-02
RM-B09-02        0.030000   0.000000   0.000000   100.000000 0.000000  
; RM-B09-03
RM-B09-03        1.300000   0.000000   0.000000   100.000000 0.000000  
; RM-B09-04
RM-B09-04        1.400000   0.000000   0.000000   100.000000 0.000000  
; RM-B09-05
RM-B09-05        1.500000   0.000000   0.000000   100.000000 0.000000  
; RM-B09-06
RM-B09-06        1.600000   0.000000   0.000000   100.000000 0.000000  
; RM-B09-07
RM-B09-07        0.400000   0.000000   0.000000   100.000000 0.000000  
; RM-B10-01
RM-B10-01        2.165000   0.000000   0.000000   100.000000 0.000000  
RM-B11-01        1.300000   0.000000   0.000000   100.000000 0.000000  
; RM-B12-01
RM-B12-01        4.670000   0.000000   0.000000   100.000000 0.000000  
; RM-B13-01
RM-B13-01        1.780000   0.000000   0.000000   100.000000 0.000000  
; RM-B14-01
RM-B14-01        3.240000   0.000000   0.000000   100.000000 0.000000  
; RM-B15-01
RM-B15-01        1.500000   0.000000   0.000000   100.000000 0.000000  
; RM-B15-02
RM-B15-02        1.600000   0.000000   0.000000   100.000000 0.000000  
; RM-B15-03
RM-B15-03        1.800000   0.000000   0.000000   100.000000 0.000000  
; RM-B15-04
RM-B15-04        3.600000   0.000000   0.000000   100.000000 0.000000  
; RM-B15-05
RM-B15-05        3.750000   0.000000   0.000000   100.000000 0.000000  
; RM-B15-06
RM-B15-06        3.800000   0.000000   0.000000   100.000000 0.000000  
; RM-B15-07
RM-B15-07        3.800000   0.000000   0.000000   100.000000 0.000000  
; RM-B16-01
RM-B16-01        0.500000   0.000000   0.000000   100.000000 0.000000  
; RM-B16-02
RM-B16-02        -1.000000  0.000000   0.000000   100.000000 0.000000  
; RM-B16-03
RM-B16-03        0.500000   0.000000   0.000000   100.000000 0.000000  
; RM-B16-04
RM-B16-04        0.300000   0.000000   0.000000   100.000000 0.000000  
RM-B16-05        0.300000   0.000000   0.000000   100.000000 0.000000  
; RM-B17-01
RM-B17-01        1.000000   0.000000   0.000000   100.000000 0.000000  
; RM-B17-02
RM-B17-02        1.000000   0.000000   0.000000   100.000000 0.000000  
; RM-B17-03
RM-B17-03        0.800000   0.000000   0.000000   100.000000 0.000000  
; RM-B17-04
RM-B17-04        0.760000   0.000000   0.000000   100.000000 0.000000  
; RM-B17-05
RM-B17-05        0.500000   0.000000   0.000000   100.000000 0.000000  
; RM-B17-05A
RM-B17-05A       0.500000   0.000000   0.000000   100.000000 0.000000  
; RM-B17-06
RM-B17-06        0.500000   0.000000   0.000000   100.000000 0.000000  
; RM-B17-06A
RM-B17-06A       1.100000   0.000000   0.000000   100.000000 0.000000  
; RM-B17-07
RM-B17-07        0.500000   0.000000   0.000000   100.000000 0.000000  
; RM-B17-07A
RM-B17-07A       1.100000   0.000000   0.000000   100.000000 0.000000  
; RM-B17-08
RM-B17-08        0.500000   0.000000   0.000000   100.000000 0.000000  
; RM-B17-08A
RM-B17-08A       1.100000   0.000000   0.000000   100.000000 0.000000  
; RM-B17-09
RM-B17-09        1.100000   0.000000   0.000000   100.000000 0.000000  
; RM-B17-09A
RM-B17-09A       1.500000   0.000000   0.000000   100.000000 0.000000  
; RM-B17-10
RM-B17-10        1.150000   0.000000   0.000000   100.000000 0.000000  
; RM-B17-11
RM-B17-11        1.500000   0.000000   0.000000   100.000000 0.000000  
; RM-B17-12
RM-B17-12        1.000000   0.000000   0.000000   100.000000 0.000000  
; RM-B17-13
RM-B17-13        1.000000   0.000000   0.000000   100.000000 0.000000  
; RM-B17-14
RM-B17-14        1.500000   0.000000   0.000000   100.000000 0.000000  
; RM-B17-15
RM-B17-15        1.500000   0.000000   0.000000   100.000000 0.000000  
; RM-B17-16
RM-B17-16        1.700000   0.000000   0.000000   100.000000 0.000000  
; RM-B17-17
RM-B17-17        2.300000   0.000000   0.000000   100.000000 0.000000  
; RM-B17-18
RM-B17-18        2.400000   0.000000   0.000000   100.000000 0.000000  
; RM-B17-19
RM-B17-19        1.800000   0.000000   0.000000   100.000000 0.000000  
; RM-B18-01
RM-B18-01        3.000000   0.000000   0.000000   100.000000 0.000000  
; RM-B18-02
RM-B18-02        3.100000   0.000000   0.000000   100.000000 0.000000  
; RM-B18-03
RM-B18-03        3.200000   0.000000   0.000000   100.000000 0.000000  
; RM-B18-04
RM-B18-04        3.300000   0.000000   0.000000   100.000000 0.000000  
; RM-B18-05
RM-B18-05        3.400000   0.000000   0.000000   100.000000 0.000000  
; RM-B18-06
RM-B18-06        4.000000   0.000000   0.000000   100.000000 0.000000  
; RM-B18-07
RM-B18-07        6.500000   0.000000   0.000000   100.000000 0.000000  
; RM-B19-01
RM-B19-01        0.010000   0.000000   0.000000   100.000000 0.000000  
; RM-B19-02
RM-B19-02        0.100000   0.000000   0.000000   100.000000 0.000000  
; RM-B19-03
RM-B19-03        0.200000   0.000000   0.000000   100.000000 0.000000  
; RM-B19-04
RM-B19-04        0.300000   0.000000   0.000000   100.000000 0.000000  
; RM-B19-05
RM-B19-05        0.400000   0.000000   0.000000   100.000000 0.000000  
; RM-B20-01
RM-B20-01        0.800000   0.000000   0.000000   100.000000 0.000000  
; RM-B20-02
RM-B20-02        1.300000   0.000000   0.000000   100.000000 0.000000  
; RM-B20-03
RM-B20-03        1.500000   0.000000   0.000000   100.000000 0.000000  
; RM-B20-04
RM-B20-04        1.600000   0.000000   0.000000   100.000000 0.000000  
; RM-B20-05
RM-B20-05        1.600000   0.000000   0.000000   100.000000 0.000000  
; RM-B20-06
RM-B20-06        22.500000  0.000000   0.000000   100.000000 0.000000  
; RM-B20-07
RM-B20-07        27.000000  0.000000   0.000000   100.000000 0.000000  
; RM-B21-01
RM-B21-01        0.500000   0.000000   0.000000   100.000000 0.000000  
; RM-B21-01NEW
RM-B21-02        0.500000   0.000000   0.000000   100.000000 0.000000  
; RM-B21-02
RM-B21-03        0.500000   0.000000   0.000000   100.000000 0.000000  
; RM-B21-03
RM-B21-04        0.500000   0.000000   0.000000   100.000000 0.000000  
; RM-B21-04
RM-B21-05        0.500000   0.000000   0.000000   100.000000 0.000000  
; RM-B21-05
RM-B21-06        0.500000   0.000000   0.000000   100.000000 0.000000  
; RM-B21-06
RM-B21-07        0.500000   0.000000   0.000000   100.000000 0.000000  
; RM-B21-07
RM-B21-08        1.000000   0.000000   0.000000   100.000000 0.000000  
; RM-B24-01
RM-B24-01        1.730000   0.000000   0.000000   100.000000 0.000000  
; RM-B25-01
RM-B25-01        2.000000   0.000000   0.000000   100.000000 0.000000  
; RM-B25-02
RM-B25-02        2.000000   0.000000   0.000000   100.000000 0.000000  
; RM-B25-03
RM-B25-03        1.500000   0.000000   0.000000   100.000000 0.000000  
; RM-B25-04
RM-B25-04        1.800000   0.000000   0.000000   100.000000 0.000000  
; RM-B25-05
RM-B25-05        1.900000   0.000000   0.000000   100.000000 0.000000  
; RM-B25-06
RM-B25-06        1.900000   0.000000   0.000000   100.000000 0.000000  
; RM-B25-07
RM-B25-07        2.100000   0.000000   0.000000   100.000000 0.000000  
; RM-B25-08
RM-B25-08        2.100000   0.000000   0.000000   100.000000 0.000000  
; RM-B26-01
RM-B26-01        0.920000   0.000000   0.000000   100.000000 0.000000  
; RM-B29-01
RM-B29-01        0.800000   0.000000   0.000000   100.000000 0.000000  
; RM-B29-02
RM-B29-02        2.600000   0.000000   0.000000   100.000000 0.000000  
; RM-B29-03
RM-B29-03        1.600000   0.000000   0.000000   100.000000 0.000000  
; RM-B29-04
RM-B29-04        1.700000   0.000000   0.000000   100.000000 0.000000  
; RM-B29-05
RM-B29-05        3.600000   0.000000   0.000000   100.000000 0.000000  
; RM-B29-06
RM-B29-06        3.600000   0.000000   0.000000   100.000000 0.000000  
; RM-B29-07
RM-B29-07        3.600000   0.000000   0.000000   100.000000 0.000000  
; RM-B29-08
RM-B29-08        3.600000   0.000000   0.000000   100.000000 0.000000  
; RM-B29-09
RM-B29-09        3.600000   0.000000   0.000000   100.000000 0.000000  
; RM-B29-10
RM-B29-10        4.500000   0.000000   0.000000   100.000000 0.000000  
; RM-B29-11
RM-B29-11        3.600000   0.000000   0.000000   100.000000 0.000000  
; RM-B29-12
RM-B29-12        2.700000   0.000000   0.000000   100.000000 0.000000  
; RM-B29-13
RM-B29-13        2.880000   0.000000   0.000000   100.000000 0.000000  
; RM-B29-14
RM-B29-14        2.850000   0.000000   0.000000   100.000000 0.000000  
; RM-B29-15
RM-B29-15        2.600000   0.000000   0.000000   100.000000 0.000000  
; RM-B29-16
RM-B29-16        2.600000   0.000000   0.000000   100.000000 0.000000  
; RM-B29-17
RM-B29-17        2.600000   0.000000   0.000000   100.000000 0.000000  
; RM-B29-18
RM-B29-18        2.600000   0.000000   0.000000   100.000000 0.000000  
; RM-B29-19
RM-B29-19        2.600000   0.000000   0.000000   100.000000 0.000000  
; RM-B29-20
RM-B29-20        3.400000   0.000000   0.000000   100.000000 0.000000  
; RM-B29-21
RM-B29-21        3.600000   0.000000   0.000000   100.000000 0.000000  
; RM-B29-22
RM-B29-22        7.100000   0.000000   0.000000   100.000000 0.000000  
; RM-B30-01
RM-B30-01        2.200000   0.000000   0.000000   100.000000 0.000000  
; RM-B30-02
RM-B30-02        2.200000   0.000000   0.000000   100.000000 0.000000  
; RM-B31-01
RM-B31-01        2.700000   0.000000   0.000000   100.000000 0.000000  
; RM-B31-02
RM-B31-02        2.700000   0.000000   0.000000   100.000000 0.000000  
; RM-B32-01
RM-B32-01        1.000000   0.000000   0.000000   100.000000 0.000000  
; RM-B32-02
RM-B32-02        1.100000   0.000000   0.000000   100.000000 0.000000  
; RM-B32-03
RM-B32-03        1.100000   0.000000   0.000000   100.000000 0.000000  
; RM-B32-04
RM-B32-04        0.800000   0.000000   0.000000   100.000000 0.000000  
; RM-B32-05
RM-B32-05        0.800000   0.000000   0.000000   100.000000 0.000000  
; RM-B32-06
RM-B32-06        0.800000   0.000000   0.000000   100.000000 0.000000  
; RM-B32-07
RM-B32-07        2.100000   0.000000   0.000000   100.000000 0.000000  
; RM-B32-08
RM-B32-08        2.400000   0.000000   0.000000   100.000000 0.000000  
; RM-B33-01
RM-B33-01        3.670000   0.000000   0.000000   100.000000 0.000000  
; RM-B34-01
RM-B34-01        3.760000   0.000000   0.000000   100.000000 0.000000  
; RM-B38-01
RM-B38-01        1.400000   0.000000   0.000000   100.000000 0.000000  
; RM-B38-02
RM-B38-02        1.400000   0.000000   0.000000   100.000000 0.000000  
; RM-B38-03
RM-B38-03        1.400000   0.000000   0.000000   100.000000 0.000000  
; RM-B38-04
RM-B38-04        1.400000   0.000000   0.000000   100.000000 0.000000  
; RM-B38-05
RM-B38-05        1.400000   0.000000   0.000000   100.000000 0.000000  
; RM-B38-06
RM-B38-06        1.400000   0.000000   0.000000   100.000000 0.000000  
; RM-B38-07
RM-B38-07        1.400000   0.000000   0.000000   100.000000 0.000000  
; RM-B38-08
RM-B38-08        1.600000   0.000000   0.000000   100.000000 0.000000  
; RM-B38-09
RM-B38-09        1.600000   0.000000   0.000000   100.000000 0.000000  
; RM-B38-10
RM-B38-10        1.600000   0.000000   0.000000   100.000000 0.000000  
; RM-B38-11
RM-B38-11        1.600000   0.000000   0.000000   100.000000 0.000000  
; RM-B39-01
RM-B39-01        2.600000   0.000000   0.000000   100.000000 0.000000  
; RM-B39-02
RM-B39-02        2.650000   0.000000   0.000000   100.000000 0.000000  
; RM-B39-03
RM-B39-03        2.800000   0.000000   0.000000   100.000000 0.000000  
; RM-B39-04
RM-B39-04        9.800000   0.000000   0.000000   100.000000 0.000000  
; RM-B39-05
RM-B39-05        11.800000  0.000000   0.000000   100.000000 0.000000  
; RM-B39-06
RM-B39-06        17.600000  0.000000   0.000000   100.000000 0.000000  
; RM-B39-07
RM-B39-07        6.600000   0.000000   0.000000   100.000000 0.000000  
; RM-B39-07A
RM-B39-07A       5.700000   0.000000   0.000000   100.000000 0.000000  
; RM-B39-08
RM-B39-08        5.300000   0.000000   0.000000   100.000000 0.000000  
; RM-B39-09
RM-B39-09        5.800000   0.000000   0.000000   100.000000 0.000000  
; RM-B39-10
RM-B39-10        3.800000   0.000000   0.000000   100.000000 0.000000  
; RM-B39-11
RM-B39-11        2.800000   0.000000   0.000000   100.000000 0.000000  
; RM-B39-12
RM-B39-12        2.800000   0.000000   0.000000   100.000000 0.000000  
; RM-B39-13
RM-B39-13        1.800000   0.000000   0.000000   100.000000 0.000000  
; RM-B40-01
RM-B40-01        2.200000   0.000000   0.000000   100.000000 0.000000  
; RM-B41-01
RM-B41-01        19.600000  0.000000   0.000000   100.000000 0.000000  
; RM-B45-01
RM-B45-01        1.700000   0.000000   0.000000   100.000000 0.000000  
; RM-B45-02
RM-B45-02        1.700000   0.000000   0.000000   100.000000 0.000000  
; RM-B45-03
RM-B45-03        1.700000   0.000000   0.000000   100.000000 0.000000  
; RM-B45-04
RM-B45-04        1.700000   0.000000   0.000000   100.000000 0.000000  
RM-B45-05        2.140000   0.000000   0.000000   100.000000 0.000000  
RM-B45-06        2.140000   0.000000   0.000000   100.000000 0.000000  
; RM-B47-01
RM-B47-01        1.200000   0.000000   0.000000   100.000000 0.000000  
; RM-B47-02
RM-B47-02        1.200000   0.000000   0.000000   100.000000 0.000000  
; RM-B47-03
RM-B47-03        1.700000   0.000000   0.000000   100.000000 0.000000  
; RM-B47-04
RM-B47-04        1.700000   0.000000   0.000000   100.000000 0.000000  
; RM-B47-05
RM-B47-05        2.700000   0.000000   0.000000   100.000000 0.000000  
; RM-B47-06
RM-B47-06        2.700000   0.000000   0.000000   100.000000 0.000000  
; RM-B47-07
RM-B47-07        3.400000   0.000000   0.000000   100.000000 0.000000  
; RM-B47-08
RM-B47-08        2.700000   0.000000   0.000000   100.000000 0.000000  
; RM-B47-09
RM-B47-09        2.700000   0.000000   0.000000   100.000000 0.000000  
; RM-B47-10
RM-B47-10        3.300000   0.000000   0.000000   100.000000 0.000000  
; RM-B47-11
RM-B47-11        1.700000   0.000000   0.000000   100.000000 0.000000  
; RM-B47-12
RM-B47-12        1.600000   0.000000   0.000000   100.000000 0.000000  
; RM-B47-13
RM-B47-13        2.600000   0.000000   0.000000   100.000000 0.000000  
; RM-B47-14
RM-B47-14        3.300000   0.000000   0.000000   100.000000 0.000000  
; RM-B48-01
RM-B48-01        2.700000   0.000000   0.000000   100.000000 0.000000  
RM-B48-02        2.700000   0.000000   0.000000   100.000000 0.000000  
; RM-B48-03
RM-B48-03        2.700000   0.000000   0.000000   100.000000 0.000000  
; RM-B48-04
RM-B48-04        3.700000   0.000000   0.000000   100.000000 0.000000  
; RM-B48-05
RM-B48-05        3.700000   0.000000   0.000000   100.000000 0.000000  
; RM-B48-06
RM-B48-06        3.700000   0.000000   0.000000   100.000000 0.000000  
; RM-B48-07
RM-B48-07        3.700000   0.000000   0.000000   100.000000 0.000000  
; RM-B48-08
RM-B48-08        3.700000   0.000000   0.000000   100.000000 0.000000  
; RM-B48-09
RM-B48-09        3.700000   0.000000   0.000000   100.000000 0.000000  
; RM-B48-10
RM-B48-10        3.700000   0.000000   0.000000   100.000000 0.000000  
; RM-B49-01
RM-B49-01        2.500000   0.000000   0.000000   100.000000 0.000000  
; RM-B49-02
RM-B49-02        2.500000   0.000000   0.000000   100.000000 0.000000  
; RM-B49-03
RM-B49-03        1.500000   0.000000   0.000000   100.000000 0.000000  
; RM-B49-04
RM-B49-04        1.500000   0.000000   0.000000   100.000000 0.000000  
; RM-B49-05
RM-B49-05        2.500000   0.000000   0.000000   100.000000 0.000000  
; RM-B49-06
RM-B49-06        2.500000   0.000000   0.000000   100.000000 0.000000  
; RM-B49-07
RM-B49-07        3.500000   0.000000   0.000000   100.000000 0.000000  
; RM-B49-08
RM-B49-08        7.300000   0.000000   0.000000   100.000000 0.000000  
; RM-B49-09
RM-B49-09        7.500000   0.000000   0.000000   100.000000 0.000000  
; RM-B49-10
RM-B49-10        12.500000  0.000000   0.000000   100.000000 0.000000  
; RM-B49-11
RM-B49-11        13.300000  0.000000   0.000000   100.000000 0.000000  
; RM-B49-12
RM-B49-12        13.500000  0.000000   0.000000   100.000000 0.000000  
; RM-B49-13
RM-B49-13        14.500000  0.000000   0.000000   100.000000 0.000000  
; RM-B49-14
RM-B49-14        15.500000  0.000000   0.000000   100.000000 0.000000  
; RM-B49-15
RM-B49-15        15.700000  0.000000   0.000000   100.000000 0.000000  
; RM-B49-16
RM-B49-16        16.500000  0.000000   0.000000   100.000000 0.000000  
; RM-B49-17
RM-B49-17        21.500000  0.000000   0.000000   100.000000 0.000000  
; RM-B49-18
RM-B49-18        21.500000  0.000000   0.000000   100.000000 0.000000  
; RM-B49-19
RM-B49-19        30.000000  0.000000   0.000000   100.000000 0.000000  
; RM-B49-20
RM-B49-20        12.500000  0.000000   0.000000   100.000000 0.000000  
; RM-B49-21
RM-B49-21        6.000000   0.000000   0.000000   100.000000 0.000000  
; RM-B49-22
RM-B49-22        3.200000   0.000000   0.000000   100.000000 0.000000  
; RM-B49-23
RM-B49-23        1.700000   0.000000   0.000000   100.000000 0.000000  
; RM-B49-24
RM-B49-24        0.500000   0.000000   0.000000   100.000000 0.000000  
; RM-B49-25
RM-B49-25        0.500000   0.000000   0.000000   100.000000 0.000000  
; RM-B49-26
RM-B49-26        0.500000   0.000000   0.000000   100.000000 0.000000  
; RM-B49-27
RM-B49-27        0.500000   0.000000   0.000000   100.000000 0.000000  
; RM-B49-28
RM-B49-28        2.150000   0.000000   0.000000   100.000000 0.000000  
; RM-B49-29
RM-B49-29        8.500000   0.000000   0.000000   100.000000 0.000000  
; RM-B49-30
RM-B49-30        8.500000   0.000000   0.000000   100.000000 0.000000  
; RM-B49-31
RM-B49-31        1.000000   0.000000   0.000000   100.000000 0.000000  
; RM-B49-32
RM-B49-32        1.000000   0.000000   0.000000   100.000000 0.000000  
; RM-B49-33
RM-B49-33        1.200000   0.000000   0.000000   100.000000 0.000000  
; RM-B49-34
RM-B49-34        1.500000   0.000000   0.000000   100.000000 0.000000  
; RM-B49-B01
RM-B49-35        1.500000   0.000000   0.000000   100.000000 0.000000  
; RM-B49-B02
RM-B49-36        2.500000   0.000000   0.000000   100.000000 0.000000  
; RM-B49-B03
RM-B49-37        2.800000   0.000000   0.000000   100.000000 0.000000  
; RM-B49-B04
RM-B49-38        3.500000   0.000000   0.000000   100.000000 0.000000  
; RM-B49-B05
RM-B49-39        15.500000  0.000000   0.000000   100.000000 0.000000  
; RM-B49-B06
RM-B49-40        17.500000  0.000000   0.000000   100.000000 0.000000  
; RM-B49-B07
RM-B49-41        18.500000  0.000000   0.000000   100.000000 0.000000  
; RM-B50-01
RM-B50-01        0.700000   0.000000   0.000000   100.000000 0.000000  
; RM-B50-02
RM-B50-02        0.700000   0.000000   0.000000   100.000000 0.000000  
; RM-B50-03
RM-B50-03        0.700000   0.000000   0.000000   100.000000 0.000000  
; RM-B50-04
RM-B50-04        1.000000   0.000000   0.000000   100.000000 0.000000  
; RM-B50-05
RM-B50-05        1.000000   0.000000   0.000000   100.000000 0.000000  
; RM-B50-06
RM-B50-06        1.500000   0.000000   0.000000   100.000000 0.000000  
; RM-B50-07
RM-B50-07        3.200000   0.000000   0.000000   100.000000 0.000000  
; RM-B50-08
RM-B50-08        1.700000   0.000000   0.000000   100.000000 0.000000  
; RM-B50-09
RM-B50-09        24.700000  0.000000   0.000000   100.000000 0.000000  
; RM-B51-01
RM-B51-01        1.800000   0.000000   0.000000   100.000000 0.000000  
; RM-B51-02
RM-B51-02        0.300000   0.000000   0.000000   100.000000 0.000000  
; RM-B51-03
RM-B51-03        0.300000   0.000000   0.000000   100.000000 0.000000  
; RM-B51-04
RM-B51-04        0.951000   0.000000   0.000000   100.000000 0.000000  
; RM-B51-05
RM-B51-05        0.951000   0.000000   0.000000   100.000000 0.000000  
; RM-B51-06
RM-B51-06        1.700000   0.000000   0.000000   100.000000 0.000000  
; RM-B51-07
RM-B51-07        1.700000   0.000000   0.000000   100.000000 0.000000  
; RM-B52-01
RM-B52-01        0.400000   0.000000   0.000000   100.000000 0.000000  
; RM-B52-02
RM-B52-02        0.800000   0.000000   0.000000   100.000000 0.000000  
; RM-B52-03
RM-B52-03        1.400000   0.000000   0.000000   100.000000 0.000000  
; RM-B52-04
RM-B52-04        2.000000   0.000000   0.000000   100.000000 0.000000  
; RM-B52-05
RM-B52-05        2.600000   0.000000   0.000000   100.000000 0.000000  
; RM-B52-06
RM-B52-06        6.300000   0.000000   0.000000   100.000000 0.000000  
; RM-B53-01
RM-B53-01        2.070000   0.000000   0.000000   100.000000 0.000000  
RM-B54-01        3.000000   0.000000   0.000000   100.000000 0.000000  
; RM-B54-02M
RM-B54-02        3.700000   0.000000   0.000000   100.000000 0.000000  
; RM-C01-01
RM-C01-01        0.400000   0.000000   0.000000   100.000000 0.000000  
; RM-C01-02
RM-C01-02        0.500000   0.000000   0.000000   100.000000 0.000000  
; RM-C01-03
RM-C01-03        0.600000   0.000000   0.000000   100.000000 0.000000  
; RM-C01-04
RM-C01-04        0.700000   0.000000   0.000000   100.000000 0.000000  
; RM-C01-A2
RM-C01-05        0.500000   0.000000   0.000000   100.000000 0.000000  
; RM-C01-A3
RM-C01-06        0.600000   0.000000   0.000000   100.000000 0.000000  
; RM-C01-A4
RM-C01-07        0.700000   0.000000   0.000000   100.000000 0.000000  
; RM-C02-01
RM-C02-01        0.010000   0.000000   0.000000   100.000000 0.000000  
; RM-C02-02
RM-C02-02        0.800000   0.000000   0.000000   100.000000 0.000000  
; RM-C03-01
RM-C03-01        0.010000   0.000000   0.000000   100.000000 0.000000  
; RM-C03-02
RM-C03-02        0.100000   0.000000   0.000000   100.000000 0.000000  
; RM-C03-03
RM-C03-03        0.800000   0.000000   0.000000   100.000000 0.000000  
; RM-C03-04
RM-C03-04        0.800000   0.000000   0.000000   100.000000 0.000000  
; RM-C04-01
RM-C04-01        2.450000   0.000000   0.000000   100.000000 0.000000  
; RM-C04-02
RM-C04-02        2.000000   0.000000   0.000000   100.000000 0.000000  
; RM-C04-03
RM-C04-03        2.800000   0.000000   0.000000   100.000000 0.000000  
; RM-C04-04
RM-C04-04        5.000000   0.000000   0.000000   100.000000 0.000000  
; RM-C04-05
RM-C04-05        6.000000   0.000000   0.000000   100.000000 0.000000  
; RM-C04-06
RM-C04-06        8.000000   0.000000   0.000000   100.000000 0.000000  
; RM-C04-07
RM-C04-07        9.000000   0.000000   0.000000   100.000000 0.000000  
; RM-C04-08
RM-C04-08        10.300000  0.000000   0.000000   100.000000 0.000000  
; RM-C04-09
RM-C04-09        9.300000   0.000000   0.000000   100.000000 0.000000  
; RM-C04-10
RM-C04-10        9.100000   0.000000   0.000000   100.000000 0.000000  
; RM-C05-01
RM-C05-01        -3.150000  0.000000   0.000000   100.000000 0.000000  
; RM-C05-02