[TITLE]
;;Project Title/Notes

[OPTIONS]
;;Option             Value
FLOW_UNITS           MGD
INFILTRATION         HORTON
FLOW_ROUTING         DYNWAVE
LINK_OFFSETS         DEPTH
MIN_SLOPE            0
ALLOW_PONDING        YES
SKIP_STEADY_STATE    NO

START_DATE           12/09/2008
START_TIME           00:00:00
REPORT_START_DATE    12/09/2008
REPORT_START_TIME    00:00:00
END_DATE             12/18/2008
END_TIME             00:00:00
SWEEP_START          01/01
SWEEP_END            12/31
DRY_DAYS             0.000000
REPORT_STEP          00:15:00
WET_STEP             00:01:00
DRY_STEP             00:05:00
ROUTING_STEP         0:00:30 

INERTIAL_DAMPING     NONE
NORMAL_FLOW_LIMITED  BOTH
FORCE_MAIN_EQUATION  H-W
VARIABLE_STEP        0.75
LENGTHENING_STEP     5
MIN_SURFAREA         12.557
MAX_TRIALS           8
HEAD_TOLERANCE       0.005
SYS_FLOW_TOL         5
LAT_FLOW_TOL         5
MINIMUM_STEP         0.5
THREADS              1

[EVAPORATION]
;;Data Source    Parameters
;;-------------- ----------------
CONSTANT         0.100000
DRY_ONLY         NO

[RAINGAGES]
;;Name           Format    Interval SCF      Source    
;;-------------- --------- ------ ------ ----------
A35001_C1        VOLUME    0.250000 1.000000 FILE       "d:\pwsa\ExtUA-Rain_07132009.dat" A35001_C1  IN   
A37002_C1        VOLUME    0.250000 1.000000 FILE       "d:\pwsa\ExtUA-Rain_07132009.dat" A37002_C1  IN   
A41IN_C1         VOLUME    0.250000 1.000000 FILE       "d:\pwsa\ExtUA-Rain_07132009.dat" A41IN_C1   IN   
A4200__-IM_-L-05_C1 VOLUME    0.250000 1.000000 FILE       "d:\pwsa\ExtUA-Rain_07132009.dat" A4200__-IM_-L-05_C1 IN   
A4200__-IM_-L-05_C10 VOLUME    0.250000 1.000000 FILE       "d:\pwsa\ExtUA-Rain_07132009.dat" A4200__-IM_-L-05_C10 IN   
A4200__-IM_-L-05_C11 VOLUME    0.250000 1.000000 FILE       "d:\pwsa\ExtUA-Rain_07132009.dat" A4200__-IM_-L-05_C11 IN   
A4200__-IM_-L-05_C12 VOLUME    0.250000 1.000000 FILE       "d:\pwsa\ExtUA-Rain_07132009.dat" A4200__-IM_-L-05_C12 IN   
A4200__-IM_-L-05_C2 VOLUME    0.250000 1.000000 FILE       "d:\pwsa\ExtUA-Rain_07132009.dat" A4200__-IM_-L-05_C2 IN   
A4200__-IM_-L-05_C3 VOLUME    0.250000 1.000000 FILE       "d:\pwsa\ExtUA-Rain_07132009.dat" A4200__-IM_-L-05_C3 IN   
A4200__-IM_-L-05_C4 VOLUME    0.250000 1.000000 FILE       "d:\pwsa\ExtUA-Rain_07132009.dat" A4200__-IM_-L-05_C4 IN   
A4200__-IM_-L-05_C5 VOLUME    0.250000 1.000000 FILE       "d:\pwsa\ExtUA-Rain_07132009.dat" A4200__-IM_-L-05_C5 IN   
A4200__-IM_-L-05_C6 VOLUME    0.250000 1.000000 FILE       "d:\pwsa\ExtUA-Rain_07132009.dat" A4200__-IM_-L-05_C6 IN   
A4200__-IM_-L-05_C7 VOLUME    0.250000 1.000000 FILE       "d:\pwsa\ExtUA-Rain_07132009.dat" A4200__-IM_-L-05_C7 IN   
A4200__-IM_-L-05_C8 VOLUME    0.250000 1.000000 FILE       "d:\pwsa\ExtUA-Rain_07132009.dat" A4200__-IM_-L-05_C8 IN   
A4200__-IM_-L-05_C9 VOLUME    0.250000 1.000000 FILE       "d:\pwsa\ExtUA-Rain_07132009.dat" A4200__-IM_-L-05_C9 IN   
A4200__-MB_-L-09_S1 VOLUME    0.250000 1.000000 FILE       "d:\pwsa\ExtUA-Rain_07132009.dat" A4200__-MB_-L-09_S1 IN   
A4200__-MM_-L-03_C1 VOLUME    0.250000 1.000000 FILE       "d:\pwsa\ExtUA-Rain_07132009.dat" A4200__-MM_-L-03_C1 IN   
A4200__-MM_-L-03_C2 VOLUME    0.250000 1.000000 FILE       "d:\pwsa\ExtUA-Rain_07132009.dat" A4200__-MM_-L-03_C2 IN   
A4200__-MM_-L-04_C1 VOLUME    0.250000 1.000000 FILE       "d:\pwsa\ExtUA-Rain_07132009.dat" A4200__-MM_-L-04_C1 IN   
A4200__-MM_-L-04_C10 VOLUME    0.250000 1.000000 FILE       "d:\pwsa\ExtUA-Rain_07132009.dat" A4200__-MM_-L-04_C10 IN   
A4200__-MM_-L-04_C11 VOLUME    0.250000 1.000000 FILE       "d:\pwsa\ExtUA-Rain_07132009.dat" A4200__-MM_-L-04_C11 IN   
A4200__-MM_-L-04_C12 VOLUME    0.250000 1.000000 FILE       "d:\pwsa\ExtUA-Rain_07132009.dat" A4200__-MM_-L-04_C12 IN   
A4200__-MM_-L-04_C13 VOLUME    0.250000 1.000000 FILE       "d:\pwsa\ExtUA-Rain_07132009.dat" A4200__-MM_-L-04_C13 IN   
A4200__-MM_-L-04_C14 VOLUME    0.250000 1.000000 FILE       "d:\pwsa\ExtUA-Rain_07132009.dat" A4200__-MM_-L-04_C14 IN   
A4200__-MM_-L-04_C15 VOLUME    0.250000 1.000000 FILE       "d:\pwsa\ExtUA-Rain_07132009.dat" A4200__-MM_-L-04_C15 IN   
A4200__-MM_-L-04_C16 VOLUME    0.250000 1.000000 FILE       "d:\pwsa\ExtUA-Rain_07132009.dat" A4200__-MM_-L-04_C16 IN   
A4200__-MM_-L-04_C17 VOLUME    0.250000 1.000000 FILE       "d:\pwsa\ExtUA-Rain_07132009.dat" A4200__-MM_-L-04_C17 IN   
A4200__-MM_-L-04_C2 VOLUME    0.250000 1.000000 FILE       "d:\pwsa\ExtUA-Rain_07132009.dat" A4200__-MM_-L-04_C2 IN   
A4200__-MM_-L-04_C3 VOLUME    0.250000 1.000000 FILE       "d:\pwsa\ExtUA-Rain_07132009.dat" A4200__-MM_-L-04_C3 IN   
A4200__-MM_-L-04_C4 VOLUME    0.250000 1.000000 FILE       "d:\pwsa\ExtUA-Rain_07132009.dat" A4200__-MM_-L-04_C4 IN   
A4200__-MM_-L-04_C5 VOLUME    0.250000 1.000000 FILE       "d:\pwsa\ExtUA-Rain_07132009.dat" A4200__-MM_-L-04_C5 IN   
A4200__-MM_-L-04_C6 VOLUME    0.250000 1.000000 FILE       "d:\pwsa\ExtUA-Rain_07132009.dat" A4200__-MM_-L-04_C6 IN   
A4200__-MM_-L-04_C7 VOLUME    0.250000 1.000000 FILE       "d:\pwsa\ExtUA-Rain_07132009.dat" A4200__-MM_-L-04_C7 IN   
A4200__-MM_-L-04_C8 VOLUME    0.250000 1.000000 FILE       "d:\pwsa\ExtUA-Rain_07132009.dat" A4200__-MM_-L-04_C8 IN   
A4200__-MM_-L-04_C9 VOLUME    0.250000 1.000000 FILE       "d:\pwsa\ExtUA-Rain_07132009.dat" A4200__-MM_-L-04_C9 IN   
A4200__-MM_-L-04_OS1 VOLUME    0.250000 1.000000 FILE       "d:\pwsa\ExtUA-Rain_07132009.dat" A4200__-MM_-L-04_OS1 IN   
A4200__-MM_-L-06_C1 VOLUME    0.250000 1.000000 FILE       "d:\pwsa\ExtUA-Rain_07132009.dat" A4200__-MM_-L-06_C1 IN   
A4200__-MM_-L-07_C1 VOLUME    0.250000 1.000000 FILE       "d:\pwsa\ExtUA-Rain_07132009.dat" A4200__-MM_-L-07_C1 IN   
A4200__-MM_-L-07_C10 VOLUME    0.250000 1.000000 FILE       "d:\pwsa\ExtUA-Rain_07132009.dat" A4200__-MM_-L-07_C10 IN   
A4200__-MM_-L-07_C11 VOLUME    0.250000 1.000000 FILE       "d:\pwsa\ExtUA-Rain_07132009.dat" A4200__-MM_-L-07_C11 IN   
A4200__-MM_-L-07_C12 VOLUME    0.250000 1.000000 FILE       "d:\pwsa\ExtUA-Rain_07132009.dat" A4200__-MM_-L-07_C12 IN   
A4200__-MM_-L-07_C13 VOLUME    0.250000 1.000000 FILE       "d:\pwsa\ExtUA-Rain_07132009.dat" A4200__-MM_-L-07_C13 IN   
A4200__-MM_-L-07_C14 VOLUME    0.250000 1.000000 FILE       "d:\pwsa\ExtUA-Rain_07132009.dat" A4200__-MM_-L-07_C14 IN   
A4200__-MM_-L-07_C15 VOLUME    0.250000 1.000000 FILE       "d:\pwsa\ExtUA-Rain_07132009.dat" A4200__-MM_-L-07_C15 IN   
A4200__-MM_-L-07_C16 VOLUME    0.250000 1.000000 FILE       "d:\pwsa\ExtUA-Rain_07132009.dat" A4200__-MM_-L-07_C16 IN   
A4200__-MM_-L-07_C17 VOLUME    0.250000 1.000000 FILE       "d:\pwsa\ExtUA-Rain_07132009.dat" A4200__-MM_-L-07_C17 IN   
A4200__-MM_-L-07_C2 VOLUME    0.250000 1.000000 FILE       "d:\pwsa\ExtUA-Rain_07132009.dat" A4200__-MM_-L-07_C2 IN   
A4200__-MM_-L-07_C3 VOLUME    0.250000 1.000000 FILE       "d:\pwsa\ExtUA-Rain_07132009.dat" A4200__-MM_-L-07_C3 IN   
A4200__-MM_-L-07_C4 VOLUME    0.250000 1.000000 FILE       "d:\pwsa\ExtUA-Rain_07132009.dat" A4200__-MM_-L-07_C4 IN   
A4200__-MM_-L-07_C5 VOLUME    0.250000 1.000000 FILE       "d:\pwsa\ExtUA-Rain_07132009.dat" A4200__-MM_-L-07_C5 IN   
A4200__-MM_-L-07_C6 VOLUME    0.250000 1.000000 FILE       "d:\pwsa\ExtUA-Rain_07132009.dat" A4200__-MM_-L-07_C6 IN   
A4200__-MM_-L-07_C7 VOLUME    0.250000 1.000000 FILE       "d:\pwsa\ExtUA-Rain_07132009.dat" A4200__-MM_-L-07_C7 IN   
A4200__-MM_-L-07_C8 VOLUME    0.250000 1.000000 FILE       "d:\pwsa\ExtUA-Rain_07132009.dat" A4200__-MM_-L-07_C8 IN   
A4200__-MM_-L-07_C9 VOLUME    0.250000 1.000000 FILE       "d:\pwsa\ExtUA-Rain_07132009.dat" A4200__-MM_-L-07_C9 IN   
A4200__-POC-L-01_C1 VOLUME    0.250000 1.000000 FILE       "d:\pwsa\ExtUA-Rain_07132009.dat" A4200__-POC-L-01_C1 IN   
A4200__-POC-L-01_C2 VOLUME    0.250000 1.000000 FILE       "d:\pwsa\ExtUA-Rain_07132009.dat" A4200__-POC-L-01_C2 IN   
A4200__-POC-L-01_C3 VOLUME    0.250000 1.000000 FILE       "d:\pwsa\ExtUA-Rain_07132009.dat" A4200__-POC-L-01_C3 IN   
A4200__-POC-L-01_C4 VOLUME    0.250000 1.000000 FILE       "d:\pwsa\ExtUA-Rain_07132009.dat" A4200__-POC-L-01_C4 IN   
A4200__-POC-L-01_C5 VOLUME    0.250000 1.000000 FILE       "d:\pwsa\ExtUA-Rain_07132009.dat" A4200__-POC-L-01_C5 IN   
A4200__-POC-L-01_ST1 VOLUME    0.250000 1.000000 FILE       "d:\pwsa\ExtUA-Rain_07132009.dat" A4200__-POC-L-01_ST1 IN   
A4200__-POC-L-02_C1 VOLUME    0.250000 1.000000 FILE       "d:\pwsa\ExtUA-Rain_07132009.dat" A4200__-POC-L-02_C1 IN   
A4200__-POC-L-02_C2 VOLUME    0.250000 1.000000 FILE       "d:\pwsa\ExtUA-Rain_07132009.dat" A4200__-POC-L-02_C2 IN   
A4200__-POC-L-02_C3 VOLUME    0.250000 1.000000 FILE       "d:\pwsa\ExtUA-Rain_07132009.dat" A4200__-POC-L-02_C3 IN   
A4200__-POC-L-02_C4 VOLUME    0.250000 1.000000 FILE       "d:\pwsa\ExtUA-Rain_07132009.dat" A4200__-POC-L-02_C4 IN   
A4200__-POC-L-02_C5 VOLUME    0.250000 1.000000 FILE       "d:\pwsa\ExtUA-Rain_07132009.dat" A4200__-POC-L-02_C5 IN   
A4200__-POC-L-02_C6 VOLUME    0.250000 1.000000 FILE       "d:\pwsa\ExtUA-Rain_07132009.dat" A4200__-POC-L-02_C6 IN   
A4200__-POC-L-02_C7 VOLUME    0.250000 1.000000 FILE       "d:\pwsa\ExtUA-Rain_07132009.dat" A4200__-POC-L-02_C7 IN   
A4200__-POC-L-02_C8 VOLUME    0.250000 1.000000 FILE       "d:\pwsa\ExtUA-Rain_07132009.dat" A4200__-POC-L-02_C8 IN   
HR001_C1         VOLUME    0.250000 1.000000 FILE       "d:\pwsa\ExtUA-Rain_07132009.dat" HR001_C1   IN   
HR001_C2         VOLUME    0.250000 1.000000 FILE       "d:\pwsa\ExtUA-Rain_07132009.dat" HR001_C2   IN   
HR001_C3         VOLUME    0.250000 1.000000 FILE       "d:\pwsa\ExtUA-Rain_07132009.dat" HR001_C3   IN   
HR002_C1         VOLUME    0.250000 1.000000 FILE       "d:\pwsa\ExtUA-Rain_07132009.dat" HR002_C1   IN   
HRZOO_C1         VOLUME    0.250000 1.000000 FILE       "d:\pwsa\ExtUA-Rain_07132009.dat" HRZOO_C1   IN   
INT_A35_C1       VOLUME    0.250000 1.000000 FILE       "d:\pwsa\ExtUA-Rain_07132009.dat" INT_A35_C1 IN   
INT_A36_C1       VOLUME    0.250000 1.000000 FILE       "d:\pwsa\ExtUA-Rain_07132009.dat" INT_A36_C1 IN   
INT_A37A_C1      VOLUME    0.250000 1.000000 FILE       "d:\pwsa\ExtUA-Rain_07132009.dat" INT_A37A_C1 IN   
INT_A37_C1       VOLUME    0.250000 1.000000 FILE       "d:\pwsa\ExtUA-Rain_07132009.dat" INT_A37_C1 IN   
INT_A38_C1       VOLUME    0.250000 1.000000 FILE       "d:\pwsa\ExtUA-Rain_07132009.dat" INT_A38_C1 IN   
INT_A40_C1       VOLUME    0.250000 1.000000 FILE       "d:\pwsa\ExtUA-Rain_07132009.dat" INT_A40_C1 IN   
INT_A42_C1       VOLUME    0.250000 1.000000 FILE       "d:\pwsa\ExtUA-Rain_07132009.dat" INT_A42_C1 IN   
NA               VOLUME    0.250000 1.000000 FILE       "d:\pwsa\ExtUA-Rain_07132009.dat" NA         IN   
STORM_ST1        VOLUME    0.250000 1.000000 FILE       "d:\pwsa\ExtUA-Rain_07132009.dat" STORM_ST1  IN   
STORM_ST2        VOLUME    0.250000 1.000000 FILE       "d:\pwsa\ExtUA-Rain_07132009.dat" STORM_ST2  IN   
STORM_ST4        VOLUME    0.250000 1.000000 FILE       "d:\pwsa\ExtUA-Rain_07132009.dat" STORM_ST4  IN   
STORM_ST5        VOLUME    0.250000 1.000000 FILE       "d:\pwsa\ExtUA-Rain_07132009.dat" STORM_ST5  IN   

[SUBCATCHMENTS]
;;Name           Rain Gage        Outlet           Area     %Imperv  Width    %Slope   CurbLen  SnowPack        
;;-------------- ---------------- ---------------- -------- -------- -------- -------- -------- ----------------
; C
A35001_C1_Ihgh   A35001_C1        MH120P002        9.960000 100.000000 147.932542 15.070000 0.000000                 
; C
A35001_C1_Ilow   A35001_C1        MH120P002        0.000000 100.000000 0.000000 0.000000 0.000000                 
; C
A35001_C1_Imed   A35001_C1        MH120P002        0.210000 100.000000 3.119060 4.280000 0.000000                 
; C
A35001_C1_Izero  A35001_C1        MH120P002        2.490000 100.000000 36.983135 0.000000 0.000000                 
; C
A35001_C1_Phgh   A35001_C1        MH120P002        37.440000 0.000000 556.083771 30.080000 0.000000                 
; C
A35001_C1_Plow   A35001_C1        MH120P002        0.000000 0.000000 0.000000 0.000000 0.000000                 
; C
A35001_C1_Pmed   A35001_C1        MH120P002        0.510000 0.000000 7.574859 4.290000 0.000000                 
; C
A35001_C1_Pzero  A35001_C1        MH120P002        4.290000 0.000000 63.717932 0.000000 0.000000                 
; C
A37002_C1_Ihgh   A37002_C1        MH120H006        0.840000 100.000000 75.224330 18.540000 0.000000                 
; C
A37002_C1_Ilow   A37002_C1        MH120H006        0.000000 100.000000 0.000000 0.000000 0.000000                 
; C
A37002_C1_Imed   A37002_C1        MH120H006        0.330000 100.000000 29.552416 3.990000 0.000000                 
; C
A37002_C1_Izero  A37002_C1        MH120H006        0.260000 100.000000 23.283721 0.110000 0.000000                 
; C
A37002_C1_Phgh   A37002_C1        MH120H006        8.390000 0.000000 751.347777 44.040000 0.000000                 
; C
A37002_C1_Plow   A37002_C1        MH120H006        0.000000 0.000000 0.000000 0.000000 0.000000                 
; C
A37002_C1_Pmed   A37002_C1        MH120H006        0.100000 0.000000 8.955277 4.360000 0.000000                 
; C
A37002_C1_Pzero  A37002_C1        MH120H006        0.140000 0.000000 12.537388 0.000000 0.000000                 
; C
A41IN_C1_Ihgh    A41IN_C1         JCT121G001       3.880000 100.000000 118.823092 16.010000 0.000000                 
; C
A41IN_C1_Ilow    A41IN_C1         JCT121G001       0.000000 100.000000 0.000000 0.000000 0.000000                 
; C
A41IN_C1_Imed    A41IN_C1         JCT121G001       1.570000 100.000000 48.080478 3.280000 0.000000                 
; C
A41IN_C1_Izero   A41IN_C1         JCT121G001       3.610000 100.000000 110.554475 0.000000 0.000000                 
; C
A41IN_C1_Phgh    A41IN_C1         JCT121G001       5.220000 0.000000 159.859933 22.810000 0.000000                 
; C
A41IN_C1_Plow    A41IN_C1         JCT121G001       0.000000 0.000000 0.000000 0.000000 0.000000                 
; C
A41IN_C1_Pmed    A41IN_C1         JCT121G001       1.870000 0.000000 57.267831 3.080000 0.000000                 
; C
A41IN_C1_Pzero   A41IN_C1         JCT121G001       3.650000 0.000000 111.779455 0.000000 0.000000                 
; C
A4200__-IM_-L-05_C10_Ihgh A4200__-IM_-L-05_C10 MH175F003        0.670000 100.000000 41.200220 11.950000 0.000000                 
; C
A4200__-IM_-L-05_C10_Ilow A4200__-IM_-L-05_C10 MH175F003        0.000000 100.000000 0.000000 0.000000 0.000000                 
; C
A4200__-IM_-L-05_C10_Imed A4200__-IM_-L-05_C10 MH175F003        1.820000 100.000000 111.917016 3.220000 0.000000                 
; C
A4200__-IM_-L-05_C10_Izero A4200__-IM_-L-05_C10 MH175F003        2.640000 100.000000 162.341166 0.080000 0.000000                 
; C
A4200__-IM_-L-05_C10_Phgh A4200__-IM_-L-05_C10 MH175F003        1.960000 0.000000 120.526017 21.050000 0.000000                 
; C
A4200__-IM_-L-05_C10_Plow A4200__-IM_-L-05_C10 MH175F003        0.000000 0.000000 0.000000 0.000000 0.000000                 
; C
A4200__-IM_-L-05_C10_Pmed A4200__-IM_-L-05_C10 MH175F003        1.570000 0.000000 96.543800 3.900000 0.000000                 
; C
A4200__-IM_-L-05_C10_Pzero A4200__-IM_-L-05_C10 MH175F003        1.680000 0.000000 103.308015 0.000000 0.000000                 
; C
A4200__-IM_-L-05_C11_Ihgh A4200__-IM_-L-05_C11 MH125M008        0.530000 100.000000 36.201676 7.210000 0.000000                 
; C
A4200__-IM_-L-05_C11_Ilow A4200__-IM_-L-05_C11 MH125M008        0.000000 100.000000 0.000000 0.000000 0.000000                 
; C
A4200__-IM_-L-05_C11_Imed A4200__-IM_-L-05_C11 MH125M008        0.560000 100.000000 38.250828 4.060000 0.000000                 
; C
A4200__-IM_-L-05_C11_Izero A4200__-IM_-L-05_C11 MH125M008        0.610000 100.000000 41.666080 0.000000 0.000000                 
; C
A4200__-IM_-L-05_C11_Phgh A4200__-IM_-L-05_C11 MH125M008        0.540000 0.000000 36.884727 7.250000 0.000000                 
; C
A4200__-IM_-L-05_C11_Plow A4200__-IM_-L-05_C11 MH125M008        0.000000 0.000000 0.000000 0.000000 0.000000                 
; C
A4200__-IM_-L-05_C11_Pmed A4200__-IM_-L-05_C11 MH125M008        0.220000 0.000000 15.027111 4.400000 0.000000                 
; C
A4200__-IM_-L-05_C11_Pzero A4200__-IM_-L-05_C11 MH125M008        0.490000 0.000000 33.469474 0.000000 0.000000                 
; C
A4200__-IM_-L-05_C12_Ihgh A4200__-IM_-L-05_C12 MH125M011        0.900000 100.000000 68.652786 11.000000 0.000000                 
; C
A4200__-IM_-L-05_C12_Ilow A4200__-IM_-L-05_C12 MH125M011        0.000000 100.000000 0.000000 0.000000 0.000000                 
; C
A4200__-IM_-L-05_C12_Imed A4200__-IM_-L-05_C12 MH125M011        0.400000 100.000000 30.512349 4.210000 0.000000                 
; C
A4200__-IM_-L-05_C12_Izero A4200__-IM_-L-05_C12 MH125M011        1.050000 100.000000 80.094917 0.000000 0.000000                 
; C
A4200__-IM_-L-05_C12_Phgh A4200__-IM_-L-05_C12 MH125M011        1.040000 0.000000 79.332109 13.300000 0.000000                 
; C
A4200__-IM_-L-05_C12_Plow A4200__-IM_-L-05_C12 MH125M011        0.000000 0.000000 0.000000 0.000000 0.000000                 
; C
A4200__-IM_-L-05_C12_Pmed A4200__-IM_-L-05_C12 MH125M011        0.330000 0.000000 25.172688 4.220000 0.000000                 
; C
A4200__-IM_-L-05_C12_Pzero A4200__-IM_-L-05_C12 MH125M011        1.360000 0.000000 103.741988 0.000000 0.000000                 
; C
A4200__-IM_-L-05_C1_Ihgh A4200__-IM_-L-05_C1 MH125H012        2.850000 100.000000 113.886958 8.490000 0.000000                 
; C
A4200__-IM_-L-05_C1_Ilow A4200__-IM_-L-05_C1 MH125H012        0.000000 100.000000 0.000000 0.000000 0.000000                 
; C
A4200__-IM_-L-05_C1_Imed A4200__-IM_-L-05_C1 MH125H012        2.080000 100.000000 83.117499 4.170000 0.000000                 
; C
A4200__-IM_-L-05_C1_Izero A4200__-IM_-L-05_C1 MH125H012        4.170000 100.000000 166.634602 0.030000 0.000000                 
; C
A4200__-IM_-L-05_C1_Phgh A4200__-IM_-L-05_C1 MH125H012        8.390000 0.000000 335.267221 17.160000 0.000000                 
; C
A4200__-IM_-L-05_C1_Plow A4200__-IM_-L-05_C1 MH125H012        0.000000 0.000000 0.000000 0.000000 0.000000                 
; C
A4200__-IM_-L-05_C1_Pmed A4200__-IM_-L-05_C1 MH125H012        2.300000 0.000000 91.908773 4.110000 0.000000                 
; C
A4200__-IM_-L-05_C1_Pzero A4200__-IM_-L-05_C1 MH125H012        5.480000 0.000000 218.982643 0.000000 0.000000                 
; C
A4200__-IM_-L-05_C2_Ihgh A4200__-IM_-L-05_C2 MH125H011        2.610000 100.000000 67.487901 10.020000 0.000000                 
; C
A4200__-IM_-L-05_C2_Ilow A4200__-IM_-L-05_C2 MH125H011        0.000000 100.000000 0.000000 0.000000 0.000000                 
; C
A4200__-IM_-L-05_C2_Imed A4200__-IM_-L-05_C2 MH125H011        1.920000 100.000000 49.646272 3.640000 0.000000                 
; C
A4200__-IM_-L-05_C2_Izero A4200__-IM_-L-05_C2 MH125H011        5.110000 100.000000 132.131485 0.010000 0.000000                 
; C
A4200__-IM_-L-05_C2_Phgh A4200__-IM_-L-05_C2 MH125H011        4.810000 0.000000 124.374255 12.250000 0.000000                 
; C
A4200__-IM_-L-05_C2_Plow A4200__-IM_-L-05_C2 MH125H011        0.000000 0.000000 0.000000 0.000000 0.000000                 
; C
A4200__-IM_-L-05_C2_Pmed A4200__-IM_-L-05_C2 MH125H011        2.370000 0.000000 61.282117 3.610000 0.000000                 
; C
A4200__-IM_-L-05_C2_Pzero A4200__-IM_-L-05_C2 MH125H011        6.550000 0.000000 169.366189 0.000000 0.000000                 
; C
A4200__-IM_-L-05_C3_Ihgh A4200__-IM_-L-05_C3 MH125L002        9.060000 100.000000 230.403395 11.020000 0.000000                 
; C
A4200__-IM_-L-05_C3_Ilow A4200__-IM_-L-05_C3 MH125L002        0.000000 100.000000 0.000000 0.000000 0.000000                 
; C
A4200__-IM_-L-05_C3_Imed A4200__-IM_-L-05_C3 MH125L002        5.400000 100.000000 137.326527 3.620000 0.000000                 
; C
A4200__-IM_-L-05_C3_Izero A4200__-IM_-L-05_C3 MH125L002        10.590000 100.000000 269.312578 0.040000 0.000000                 
; C
A4200__-IM_-L-05_C3_Phgh A4200__-IM_-L-05_C3 MH125L002        14.090000 0.000000 358.320512 11.920000 0.000000                 
; C
A4200__-IM_-L-05_C3_Plow A4200__-IM_-L-05_C3 MH125L002        0.000000 0.000000 0.000000 0.000000 0.000000                 
; C
A4200__-IM_-L-05_C3_Pmed A4200__-IM_-L-05_C3 MH125L002        8.090000 0.000000 205.735482 3.460000 0.000000                 
; C
A4200__-IM_-L-05_C3_Pzero A4200__-IM_-L-05_C3 MH125L002        11.470000 0.000000 291.691716 0.000000 0.000000                 
; C
A4200__-IM_-L-05_C4_Ihgh A4200__-IM_-L-05_C4 MH125H003        0.520000 100.000000 46.924134 6.890000 0.000000                 
; C
A4200__-IM_-L-05_C4_Ilow A4200__-IM_-L-05_C4 MH125H003        0.000000 100.000000 0.000000 0.000000 0.000000                 
; C
A4200__-IM_-L-05_C4_Imed A4200__-IM_-L-05_C4 MH125H003        0.170000 100.000000 15.340582 4.310000 0.000000                 
; C
A4200__-IM_-L-05_C4_Izero A4200__-IM_-L-05_C4 MH125H003        0.600000 100.000000 54.143231 0.000000 0.000000                 
; C
A4200__-IM_-L-05_C4_Phgh A4200__-IM_-L-05_C4 MH125H003        0.650000 0.000000 58.655167 10.100000 0.000000                 
; C
A4200__-IM_-L-05_C4_Plow A4200__-IM_-L-05_C4 MH125H003        0.000000 0.000000 0.000000 0.000000 0.000000                 
; C
A4200__-IM_-L-05_C4_Pmed A4200__-IM_-L-05_C4 MH125H003        0.230000 0.000000 20.754905 4.330000 0.000000                 
; C
A4200__-IM_-L-05_C4_Pzero A4200__-IM_-L-05_C4 MH125H003        1.010000 0.000000 91.141106 0.000000 0.000000                 
; C
A4200__-IM_-L-05_C5_Ihgh A4200__-IM_-L-05_C5 MH125M004        4.540000 100.000000 66.294650 8.600000 0.000000                 
; C
A4200__-IM_-L-05_C5_Ilow A4200__-IM_-L-05_C5 MH125M004        0.000000 100.000000 0.000000 0.000000 0.000000                 
; C
A4200__-IM_-L-05_C5_Imed A4200__-IM_-L-05_C5 MH125M004        3.410000 100.000000 49.793999 3.730000 0.000000                 
; C
A4200__-IM_-L-05_C5_Izero A4200__-IM_-L-05_C5 MH125M004        7.130000 100.000000 104.114726 0.000000 0.000000                 
; C
A4200__-IM_-L-05_C5_Phgh A4200__-IM_-L-05_C5 MH125M004        11.620000 0.000000 169.679258 10.720000 0.000000                 
; C
A4200__-IM_-L-05_C5_Plow A4200__-IM_-L-05_C5 MH125M004        0.000000 0.000000 0.000000 0.000000 0.000000                 
; C
A4200__-IM_-L-05_C5_Pmed A4200__-IM_-L-05_C5 MH125M004        11.510000 0.000000 168.073000 3.120000 0.000000                 
; C
A4200__-IM_-L-05_C5_Pzero A4200__-IM_-L-05_C5 MH125M004        15.690000 0.000000 229.110806 0.000000 0.000000                 
; C
A4200__-IM_-L-05_C6_Ihgh A4200__-IM_-L-05_C6 MH125S001        4.850000 100.000000 122.676799 9.350000 0.000000                 
; C
A4200__-IM_-L-05_C6_Ilow A4200__-IM_-L-05_C6 MH125S001        0.000000 100.000000 0.000000 0.000000 0.000000                 
; C
A4200__-IM_-L-05_C6_Imed A4200__-IM_-L-05_C6 MH125S001        3.590000 100.000000 90.806125 3.680000 0.000000                 
; C
A4200__-IM_-L-05_C6_Izero A4200__-IM_-L-05_C6 MH125S001        5.140000 100.000000 130.012113 0.010000 0.000000                 
; C
A4200__-IM_-L-05_C6_Phgh A4200__-IM_-L-05_C6 MH125S001        8.220000 0.000000 207.918203 10.900000 0.000000                 
; C
A4200__-IM_-L-05_C6_Plow A4200__-IM_-L-05_C6 MH125S001        0.000000 0.000000 0.000000 0.000000 0.000000                 
; C
A4200__-IM_-L-05_C6_Pmed A4200__-IM_-L-05_C6 MH125S001        5.130000 0.000000 129.759171 3.450000 0.000000                 
; C
A4200__-IM_-L-05_C6_Pzero A4200__-IM_-L-05_C6 MH125S001        7.110000 0.000000 179.841658 0.000000 0.000000                 
; C
A4200__-IM_-L-05_C7_Ihgh A4200__-IM_-L-05_C7 JCT174N003       1.100000 100.000000 37.238514 10.490000 0.000000                 
; C
A4200__-IM_-L-05_C7_Ilow A4200__-IM_-L-05_C7 JCT174N003       0.000000 100.000000 0.000000 0.000000 0.000000                 
; C
A4200__-IM_-L-05_C7_Imed A4200__-IM_-L-05_C7 JCT174N003       5.240000 100.000000 177.390741 3.000000 0.000000                 
; C
A4200__-IM_-L-05_C7_Izero A4200__-IM_-L-05_C7 JCT174N003       7.280000 100.000000 246.451259 0.010000 0.000000                 
; C
A4200__-IM_-L-05_C7_Phgh A4200__-IM_-L-05_C7 JCT174N003       3.190000 0.000000 107.991692 20.540000 0.000000                 
; C
A4200__-IM_-L-05_C7_Plow A4200__-IM_-L-05_C7 JCT174N003       0.000000 0.000000 0.000000 0.000000 0.000000                 
; C
A4200__-IM_-L-05_C7_Pmed A4200__-IM_-L-05_C7 JCT174N003       4.680000 0.000000 158.432952 3.290000 0.000000                 
; C
A4200__-IM_-L-05_C7_Pzero A4200__-IM_-L-05_C7 JCT174N003       8.520000 0.000000 288.429220 0.000000 0.000000                 
; C
A4200__-IM_-L-05_C8_Ihgh A4200__-IM_-L-05_C8 MH175A004        6.640000 100.000000 181.500510 8.100000 0.000000                 
; C
A4200__-IM_-L-05_C8_Ilow A4200__-IM_-L-05_C8 MH175A004        0.000000 100.000000 0.000000 0.000000 0.000000                 
; C
A4200__-IM_-L-05_C8_Imed A4200__-IM_-L-05_C8 MH175A004        4.770000 100.000000 130.385156 4.000000 0.000000                 
; C
A4200__-IM_-L-05_C8_Izero A4200__-IM_-L-05_C8 MH175A004        12.060000 100.000000 329.653035 0.090000 0.000000                 
; C
A4200__-IM_-L-05_C8_Phgh A4200__-IM_-L-05_C8 MH175A004        8.590000 0.000000 234.802618 12.320000 0.000000                 
; C
A4200__-IM_-L-05_C8_Plow A4200__-IM_-L-05_C8 MH175A004        0.000000 0.000000 0.000000 0.000000 0.000000                 
; C
A4200__-IM_-L-05_C8_Pmed A4200__-IM_-L-05_C8 MH175A004        3.300000 0.000000 90.203567 4.040000 0.000000                 
; C
A4200__-IM_-L-05_C8_Pzero A4200__-IM_-L-05_C8 MH175A004        6.370000 0.000000 174.120218 0.000000 0.000000                 
; C
A4200__-IM_-L-05_C9_Ihgh A4200__-IM_-L-05_C9 MH175F006        15.100000 100.000000 168.500642 9.980000 0.000000                 
; C
A4200__-IM_-L-05_C9_Ilow A4200__-IM_-L-05_C9 MH175F006        0.000000 100.000000 0.000000 0.000000 0.000000                 
; C
A4200__-IM_-L-05_C9_Imed A4200__-IM_-L-05_C9 MH175F006        10.920000 100.000000 121.856093 3.540000 0.000000                 
; C
A4200__-IM_-L-05_C9_Izero A4200__-IM_-L-05_C9 MH175F006        18.890000 100.000000 210.793187 0.050000 0.000000                 
; C
A4200__-IM_-L-05_C9_Phgh A4200__-IM_-L-05_C9 MH175F006        26.590000 0.000000 296.717356 12.600000 0.000000                 
; C
A4200__-IM_-L-05_C9_Plow A4200__-IM_-L-05_C9 MH175F006        0.000000 0.000000 0.000000 0.000000 0.000000                 
; C
A4200__-IM_-L-05_C9_Pmed A4200__-IM_-L-05_C9 MH175F006        9.480000 0.000000 105.787158 3.620000 0.000000                 
; C
A4200__-IM_-L-05_C9_Pzero A4200__-IM_-L-05_C9 MH175F006        14.960000 0.000000 166.938384 0.000000 0.000000                 
; C
A4200__-MM_-L-03_C1_Ihgh A4200__-MM_-L-03_C1 MH124K012        0.870000 100.000000 54.055749 9.200000 0.000000                 
; C
A4200__-MM_-L-03_C1_Ilow A4200__-MM_-L-03_C1 MH124K012        0.000000 100.000000 0.000000 0.000000 0.000000                 
; C
A4200__-MM_-L-03_C1_Imed A4200__-MM_-L-03_C1 MH124K012        1.100000 100.000000 68.346349 3.160000 0.000000                 
; C
A4200__-MM_-L-03_C1_Izero A4200__-MM_-L-03_C1 MH124K012        1.510000 100.000000 93.820897 0.000000 0.000000                 
; C
A4200__-MM_-L-03_C1_Phgh A4200__-MM_-L-03_C1 MH124K012        2.020000 0.000000 125.508750 9.760000 0.000000                 
; C
A4200__-MM_-L-03_C1_Plow A4200__-MM_-L-03_C1 MH124K012        0.000000 0.000000 0.000000 0.000000 0.000000                 
; C
A4200__-MM_-L-03_C1_Pmed A4200__-MM_-L-03_C1 MH124K012        2.800000 0.000000 173.972524 3.300000 0.000000                 
; C
A4200__-MM_-L-03_C1_Pzero A4200__-MM_-L-03_C1 MH124K012        2.650000 0.000000 164.652568 0.000000 0.000000                 
; C
A4200__-MM_-L-03_C2_Ihgh A4200__-MM_-L-03_C2 MH124L018        1.100000 100.000000 36.535893 17.400000 0.000000                 
; C
A4200__-MM_-L-03_C2_Ilow A4200__-MM_-L-03_C2 MH124L018        0.000000 100.000000 0.000000 0.000000 0.000000                 
; C
A4200__-MM_-L-03_C2_Imed A4200__-MM_-L-03_C2 MH124L018        0.220000 100.000000 7.307179 3.730000 0.000000                 
; C
A4200__-MM_-L-03_C2_Izero A4200__-MM_-L-03_C2 MH124L018        1.020000 100.000000 33.878737 0.060000 0.000000                 
; C
A4200__-MM_-L-03_C2_Phgh A4200__-MM_-L-03_C2 MH124L018        5.950000 0.000000 197.625966 50.350000 0.000000                 
; C
A4200__-MM_-L-03_C2_Plow A4200__-MM_-L-03_C2 MH124L018        0.000000 0.000000 0.000000 0.000000 0.000000                 
; C
A4200__-MM_-L-03_C2_Pmed A4200__-MM_-L-03_C2 MH124L018        0.140000 0.000000 4.650023 3.490000 0.000000                 
; C
A4200__-MM_-L-03_C2_Pzero A4200__-MM_-L-03_C2 MH124L018        0.420000 0.000000 13.950068 0.000000 0.000000                 
; C
A4200__-MM_-L-04_C10_Ihgh A4200__-MM_-L-04_C10 MH173B012        18.600000 100.000000 304.372902 16.480000 0.000000                 
; C
A4200__-MM_-L-04_C10_Ilow A4200__-MM_-L-04_C10 MH173B012        0.000000 100.000000 0.000000 0.000000 0.000000                 
; C
A4200__-MM_-L-04_C10_Imed A4200__-MM_-L-04_C10 MH173B012        0.840000 100.000000 13.745873 3.940000 0.000000                 
; C
A4200__-MM_-L-04_C10_Izero A4200__-MM_-L-04_C10 MH173B012        3.950000 100.000000 64.638331 0.000000 0.000000                 
; C
A4200__-MM_-L-04_C10_Phgh A4200__-MM_-L-04_C10 MH173B012        54.590000 0.000000 893.318105 22.830000 0.000000                 
; C
A4200__-MM_-L-04_C10_Plow A4200__-MM_-L-04_C10 MH173B012        0.000000 0.000000 0.000000 0.000000 0.000000                 
; C
A4200__-MM_-L-04_C10_Pmed A4200__-MM_-L-04_C10 MH173B012        1.130000 0.000000 18.491472 3.680000 0.000000                 
; C
A4200__-MM_-L-04_C10_Pzero A4200__-MM_-L-04_C10 MH173B012        8.040000 0.000000 131.567642 0.000000 0.000000                 
; C