[TITLE]
;;Project Title/Notes

[OPTIONS]
;;Option             Value
FLOW_UNITS           CMS
INFILTRATION         HORTON
FLOW_ROUTING         KINWAVE
LINK_OFFSETS         DEPTH
MIN_SLOPE            0
ALLOW_PONDING        YES
SKIP_STEADY_STATE    NO

START_DATE           12/12/2018
START_TIME           00:00:00
REPORT_START_DATE    12/12/2018
REPORT_START_TIME    00:00:00
END_DATE             12/13/2018
END_TIME             00:00:00
SWEEP_START          01/01
SWEEP_END            12/31
DRY_DAYS             0
REPORT_STEP          00:15:00
WET_STEP             00:05:00
DRY_STEP             01:00:00
ROUTING_STEP         0:00:30 

INERTIAL_DAMPING     PARTIAL
NORMAL_FLOW_LIMITED  BOTH
FORCE_MAIN_EQUATION  H-W
VARIABLE_STEP        0.75
LENGTHENING_STEP     0
MIN_SURFAREA         1.14
MAX_TRIALS           8
HEAD_TOLERANCE       0.0015
SYS_FLOW_TOL         5
LAT_FLOW_TOL         5
MINIMUM_STEP         0.5
THREADS              1

[EVAPORATION]
;;Data Source    Parameters
;;-------------- ----------------
CONSTANT         0.0
DRY_ONLY         NO

[RAINGAGES]
;;Name           Format    Interval SCF      Source    
;;-------------- --------- ------ ------ ----------
1                INTENSITY 1:00     1.0      TIMESERIES CityRain        

[SUBCATCHMENTS]
;;Name           Rain Gage        Outlet           Area     %Imperv  Width    %Slope   CurbLen  SnowPack        
;;-------------- ---------------- ---------------- -------- -------- -------- -------- -------- ----------------
N188             1                Lake2            8.001489 100.000000 159.591765 0.000000 0.000000                 
N189             1                WH-8-WH-9        3.684382 100.000000 108.294749 0.000000 0.000000                 
N190             1                Junction22       7.613825 100.000000 155.677732 0.000000 0.000000                 
N191             1                WH-6-2-WH-6-WH-7 5.652906 100.000000 134.140814 0.000000 0.000000                 
N192             1                Lake2            0.051015 100.000000 12.743110 0.000000 0.000000                 
N193             1                Lake2            0.131959 100.000000 20.494867 0.000000 0.000000                 
N194             1                Lake2            0.277464 100.000000 29.718619 0.000000 0.000000                 
N195             1                Lake1            0.051015 100.000000 12.743110 0.000000 0.000000                 
N196             1                Lake2            0.053903 100.000000 13.098827 0.000000 0.000000                 
N197             1                Lake2            0.066139 100.000000 14.509528 0.000000 0.000000                 
N198             1                Lake2            32.262852 100.000000 320.461927 0.000000 0.000000                 
N199             1                Lake2            0.110239 100.000000 18.732380 0.000000 0.000000                 
N200             1                Lake2            0.089706 100.000000 16.897992 0.000000 0.000000                 
N201             1                WH-8-WH-9        0.842901 100.000000 51.798038 0.000000 0.000000                 
N202             1                Lake1            0.277477 100.000000 29.719283 0.000000 0.000000                 
N203             1                Lake1            0.131959 100.000000 20.494867 0.000000 0.000000                 
N204             1                Lake2            6.880219 100.000000 147.987894 0.000000 0.000000                 
N205             1                Lake1            4.699926 100.000000 122.312419 0.000000 0.000000                 
N206             1                Lake2            5.275921 100.000000 129.590811 0.000000 0.000000                 
N207             1                Lake2            3.665380 100.000000 108.015128 0.000000 0.000000                 
N208             1                WH-6             3.601306 100.000000 107.066861 0.000000 0.000000                 
N209             1                WH-6             2.111696 100.000000 81.986205 0.000000 0.000000                 
N210             1                Lake1            1.105193 100.000000 59.312215 0.000000 0.000000                 
N211             1                Lake1            1.002842 100.000000 56.499061 0.000000 0.000000                 
N212             1                Lake1            1.607616 100.000000 71.534620 0.000000 0.000000                 
N213             1                WH-6             16.607635 100.000000 229.921166 0.000000 0.000000                 
N214             1                WH-5-2-WH-6      8.056154 100.000000 160.135990 0.000000 0.000000                 
N215             1                WH-5-1-WH-6      5.241409 100.000000 129.166256 0.000000 0.000000                 
N216             1                Lake2            5.692286 100.000000 134.607238 0.000000 0.000000                 
N217             1                WH-5-0-WH-6      5.863037 100.000000 136.611227 0.000000 0.000000                 
N218             1                Lake2            2.845369 100.000000 95.168744 0.000000 0.000000                 
N220             1                Lake1            0.963761 100.000000 55.387235 0.000000 0.000000                 
N221             1                Lake1            0.883055 100.000000 53.017473 0.000000 0.000000                 
N559             1                Lake1            355.734846 100.000000 1064.114272 0.000000 0.000000                 
S201             1                Junction31       4.852065 100.000000 124.276315 0.000000 0.000000                 
S203             1                Junction31       10.188110 100.000000 180.082650 0.000000 0.000000                 
S205             1                WH-8-WH-9        5.273219 100.000000 129.557623 0.000000 0.000000                 
S207             1                Junction30       4.993903 100.000000 126.079681 0.000000 0.000000                 
S209             1                Junction31       5.326218 100.000000 130.207057 0.000000 0.000000                 
S211             1                Junction08       4.551828 100.000000 120.369927 0.000000 0.000000                 
S213             1                Junction08       0.733654 100.000000 48.324874 0.000000 0.000000                 
S214             1                Junction08       0.641481 100.000000 45.187369 0.000000 0.000000                 
S215             1                DFQ-11-0-DFQ-11-DFQ-12 2.143642 100.000000 82.604015 0.000000 0.000000                 
S216             1                DFQ-11-0-DFQ-11-DFQ-12 2.157129 100.000000 82.863467 0.000000 0.000000                 
S217             1                DFQ-11-0-DFQ-11-DFQ-12 2.246052 100.000000 84.554161 0.000000 0.000000                 
S218             1                DFQ-11-0-DFQ-11-DFQ-12 2.246623 100.000000 84.564905 0.000000 0.000000                 
S219             1                Junction31       2.424917 100.000000 87.856423 0.000000 0.000000                 
S220             1                Junction31       2.721952 100.000000 93.081913 0.000000 0.000000                 
S222             1                Junction31       12.860341 100.000000 202.325822 0.000000 0.000000                 
S223             1                DFQ-10-DFQ-11-DFQ-11 4.875818 100.000000 124.580133 0.000000 0.000000                 
S224             1                DFQ-10-DFQ-11-DFQ-11 3.139696 100.000000 99.969813 0.000000 0.000000                 
S225             1                DFQ-10-DFQ-11-DFQ-11 4.824367 100.000000 123.921088 0.000000 0.000000                 
S226             1                DFQ-10-DFQ-11-DFQ-11 2.827258 100.000000 94.865394 0.000000 0.000000                 
S227             1                DFQ-10-DFQ-11-DFQ-11 2.308950 100.000000 85.729898 0.000000 0.000000                 
S228             1                DFQ-10-DFQ-11-DFQ-11 5.012176 100.000000 126.310146 0.000000 0.000000                 
S229             1                DFQ-11-0-DFQ-11-DFQ-12 8.255389 100.000000 162.104035 0.000000 0.000000                 
S231             1                Junction30       16.665969 100.000000 230.324610 0.000000 0.000000                 
S234             1                DFQ-11-1-DFQ-11-DFQ-12 0.210290 100.000000 25.872261 0.000000 0.000000                 
S235             1                DFQ-11-1-DFQ-11-DFQ-12 0.441352 100.000000 37.481544 0.000000 0.000000                 
S261             1                DFQ-11-1-DFQ-11-DFQ-12 0.562433 100.000000 42.311714 0.000000 0.000000                 
S264             1                DFQ-11-1-DFQ-11-DFQ-12 1.206535 100.000000 61.971940 0.000000 0.000000                 
S265             1                DFQ-11-1-DFQ-11-DFQ-12 2.573149 100.000000 90.501861 0.000000 0.000000                 
S266             1                DFQ-11-1-DFQ-11-DFQ-12 2.879251 100.000000 95.733699 0.000000 0.000000                 
S275             1                Junction08       4.143431 100.000000 114.843159 0.000000 0.000000                 
s204             1                Junction09       15.306847 100.000000 220.733342 0.000000 0.000000                 
S271             1                Junction30       2.335069 100.000000 86.213434 0.000000 0.000000                 
S260             1                Junction30       5.385274 100.000000 130.926921 0.000000 0.000000                 
N240!            1                XXXXX03117       0.002959 0.000000 50.730861 0.034951 0.000000                 
N386!            1                XXXXX02916       0.008000 100.000000 5.046265 0.147323 0.000000                 

[SUBAREAS]
;;Subcatchment   N-Imperv   N-Perv     S-Imperv   S-Perv     PctZero    RouteTo    PctRouted 
;;-------------- ---------- ---------- ---------- ---------- ---------- ---------- ----------
N188             0.000000   0.000000   0.000000   0.000000   0.000000   OUTLET    
N189             0.000000   0.000000   0.000000   0.000000   0.000000   OUTLET    
N190             0.000000   0.000000   0.000000   0.000000   0.000000   OUTLET    
N191             0.000000   0.000000   0.000000   0.000000   0.000000   OUTLET    
N192             0.000000   0.000000   0.000000   0.000000   0.000000   OUTLET    
N193             0.000000   0.000000   0.000000   0.000000   0.000000   OUTLET    
N194             0.000000   0.000000   0.000000   0.000000   0.000000   OUTLET    
N195             0.000000   0.000000   0.000000   0.000000   0.000000   OUTLET    
N196             0.000000   0.000000   0.000000   0.000000   0.000000   OUTLET    
N197             0.000000   0.000000   0.000000   0.000000   0.000000   OUTLET    
N198             0.000000   0.000000   0.000000   0.000000   0.000000   OUTLET    
N199             0.000000   0.000000   0.000000   0.000000   0.000000   OUTLET    
N200             0.000000   0.000000   0.000000   0.000000   0.000000   OUTLET    
N201             0.000000   0.000000   0.000000   0.000000   0.000000   OUTLET    
N202             0.000000   0.000000   0.000000   0.000000   0.000000   OUTLET    
N203             0.000000   0.000000   0.000000   0.000000   0.000000   OUTLET    
N204             0.000000   0.000000   0.000000   0.000000   0.000000   OUTLET    
N205             0.000000   0.000000   0.000000   0.000000   0.000000   OUTLET    
N206             0.000000   0.000000   0.000000   0.000000   0.000000   OUTLET    
N207             0.000000   0.000000   0.000000   0.000000   0.000000   OUTLET    
N208             0.000000   0.000000   0.000000   0.000000   0.000000   OUTLET    
N209             0.000000   0.000000   0.000000   0.000000   0.000000   OUTLET    
N210             0.000000   0.000000   0.000000   0.000000   0.000000   OUTLET    
N211             0.000000   0.000000   0.000000   0.000000   0.000000   OUTLET    
N212             0.000000   0.000000   0.000000   0.000000   0.000000   OUTLET    
N213             0.000000   0.000000   0.000000   0.000000   0.000000   OUTLET    
N214             0.000000   0.000000   0.000000   0.000000   0.000000   OUTLET    
N215             0.000000   0.000000   0.000000   0.000000   0.000000   OUTLET    
N216             0.000000   0.000000   0.000000   0.000000   0.000000   OUTLET    
N217             0.000000   0.000000   0.000000   0.000000   0.000000   OUTLET    
N218             0.000000   0.000000   0.000000   0.000000   0.000000   OUTLET    
N220             0.000000   0.000000   0.000000   0.000000   0.000000   OUTLET    
N221             0.000000   0.000000   0.000000   0.000000   0.000000   OUTLET    
N559             0.000000   0.000000   0.000000   0.000000   0.000000   OUTLET    
S201             0.000000   0.000000   0.000000   0.000000   0.000000   OUTLET    
S203             0.000000   0.000000   0.000000   0.000000   0.000000   OUTLET    
S205             0.000000   0.000000   0.000000   0.000000   0.000000   OUTLET    
S207             0.000000   0.000000   0.000000   0.000000   0.000000   OUTLET    
S209             0.000000   0.000000   0.000000   0.000000   0.000000   OUTLET    
S211             0.000000   0.000000   0.000000   0.000000   0.000000   OUTLET    
S213             0.000000   0.000000   0.000000   0.000000   0.000000   OUTLET    
S214             0.000000   0.000000   0.000000   0.000000   0.000000   OUTLET    
S215             0.000000   0.000000   0.000000   0.000000   0.000000   OUTLET    
S216             0.000000   0.000000   0.000000   0.000000   0.000000   OUTLET    
S217             0.000000   0.000000   0.000000   0.000000   0.000000   OUTLET    
S218             0.000000   0.000000   0.000000   0.000000   0.000000   OUTLET    
S219             0.000000   0.000000   0.000000   0.000000   0.000000   OUTLET    
S220             0.000000   0.000000   0.000000   0.000000   0.000000   OUTLET    
S222             0.000000   0.000000   0.000000   0.000000   0.000000   OUTLET    
S223             0.000000   0.000000   0.000000   0.000000   0.000000   OUTLET    
S224             0.000000   0.000000   0.000000   0.000000   0.000000   OUTLET    
S225             0.000000   0.000000   0.000000   0.000000   0.000000   OUTLET    
S226             0.000000   0.000000   0.000000   0.000000   0.000000   OUTLET    
S227             0.000000   0.000000   0.000000   0.000000   0.000000   OUTLET    
S228             0.000000   0.000000   0.000000   0.000000   0.000000   OUTLET    
S229             0.000000   0.000000   0.000000   0.000000   0.000000   OUTLET    
S231             0.000000   0.000000   0.000000   0.000000   0.000000   OUTLET    
S234             0.000000   0.000000   0.000000   0.000000   0.000000   OUTLET    
S235             0.000000   0.000000   0.000000   0.000000   0.000000   OUTLET    
S261             0.000000   0.000000   0.000000   0.000000   0.000000   OUTLET    
S264             0.000000   0.000000   0.000000   0.000000   0.000000   OUTLET    
S265             0.000000   0.000000   0.000000   0.000000   0.000000   OUTLET    
S266             0.000000   0.000000   0.000000   0.000000   0.000000   OUTLET    
S275             0.000000   0.000000   0.000000   0.000000   0.000000   OUTLET    
s204             0.000000   0.000000   0.000000   0.000000   0.000000   OUTLET    
S271             0.000000   0.000000   0.000000   0.000000   0.000000   OUTLET    
S260             0.000000   0.000000   0.000000   0.000000   0.000000   OUTLET    
N240!            0.000000   0.000000   0.000000   0.000000   0.000000   OUTLET    
N386!            0.000000   0.000000   1.849793   0.000000   0.000000   OUTLET    

[INFILTRATION]
;;Subcatchment   MaxRate    MinRate    Decay      DryTime    MaxInfil  
;;-------------- ---------- ---------- ---------- ---------- ----------
N188             0.000000   0.000000   0.000000   999.000000 0.000000  
N189             0.000000   0.000000   0.000000   999.000000 0.000000  
N190             0.000000   0.000000   0.000000   999.000000 0.000000  
N191             0.000000   0.000000   0.000000   999.000000 0.000000  
N192             0.000000   0.000000   0.000000   999.000000 0.000000  
N193             0.000000   0.000000   0.000000   999.000000 0.000000  
N194             0.000000   0.000000   0.000000   999.000000 0.000000  
N195             0.000000   0.000000   0.000000   999.000000 0.000000  
N196             0.000000   0.000000   0.000000   999.000000 0.000000  
N197             0.000000   0.000000   0.000000   999.000000 0.000000  
N198             0.000000   0.000000   0.000000   999.000000 0.000000  
N199             0.000000   0.000000   0.000000   999.000000 0.000000  
N200             0.000000   0.000000   0.000000   999.000000 0.000000  
N201             0.000000   0.000000   0.000000   999.000000 0.000000  
N202             0.000000   0.000000   0.000000   999.000000 0.000000  
N203             0.000000   0.000000   0.000000   999.000000 0.000000  
N204             0.000000   0.000000   0.000000   999.000000 0.000000  
N205             0.000000   0.000000   0.000000   999.000000 0.000000  
N206             0.000000   0.000000   0.000000   999.000000 0.000000  
N207             0.000000   0.000000   0.000000   999.000000 0.000000  
N208             0.000000   0.000000   0.000000   999.000000 0.000000  
N209             0.000000   0.000000   0.000000   999.000000 0.000000  
N210             0.000000   0.000000   0.000000   999.000000 0.000000  
N211             0.000000   0.000000   0.000000   999.000000 0.000000  
N212             0.000000   0.000000   0.000000   999.000000 0.000000  
N213             0.000000   0.000000   0.000000   999.000000 0.000000  
N214             0.000000   0.000000   0.000000   999.000000 0.000000  
N215             0.000000   0.000000   0.000000   999.000000 0.000000  
N216             0.000000   0.000000   0.000000   999.000000 0.000000  
N217             0.000000   0.000000   0.000000   999.000000 0.000000  
N218             0.000000   0.000000   0.000000   999.000000 0.000000  
N220             0.000000   0.000000   0.000000   999.000000 0.000000  
N221             0.000000   0.000000   0.000000   999.000000 0.000000  
N559             0.000000   0.000000   0.000000   999.000000 0.000000  
S201             0.000000   0.000000   0.000000   999.000000 0.000000  
S203             0.000000   0.000000   0.000000   999.000000 0.000000  
S205             0.000000   0.000000   0.000000   999.000000 0.000000  
S207             0.000000   0.000000   0.000000   999.000000 0.000000  
S209             0.000000   0.000000   0.000000   999.000000 0.000000  
S211             0.000000   0.000000   0.000000   999.000000 0.000000  
S213             0.000000   0.000000   0.000000   999.000000 0.000000  
S214             0.000000   0.000000   0.000000   999.000000 0.000000  
S215             0.000000   0.000000   0.000000   999.000000 0.000000  
S216             0.000000   0.000000   0.000000   999.000000 0.000000  
S217             0.000000   0.000000   0.000000   999.000000 0.000000  
S218             0.000000   0.000000   0.000000   999.000000 0.000000  
S219             0.000000   0.000000   0.000000   999.000000 0.000000  
S220             0.000000   0.000000   0.000000   999.000000 0.000000  
S222             0.000000   0.000000   0.000000   999.000000 0.000000  
S223             0.000000   0.000000   0.000000   999.000000 0.000000  
S224             0.000000   0.000000   0.000000   999.000000 0.000000  
S225             0.000000   0.000000   0.000000   999.000000 0.000000  
S226             0.000000   0.000000   0.000000   999.000000 0.000000  
S227             0.000000   0.000000   0.000000   999.000000 0.000000  
S228             0.000000   0.000000   0.000000   999.000000 0.000000  
S229             0.000000   0.000000   0.000000   999.000000 0.000000  
S231             0.000000   0.000000   0.000000   999.000000 0.000000  
S234             0.000000   0.000000   0.000000   999.000000 0.000000  
S235             0.000000   0.000000   0.000000   999.000000 0.000000  
S261             0.000000   0.000000   0.000000   999.000000 0.000000  
S264             0.000000   0.000000   0.000000   999.000000 0.000000  
S265             0.000000   0.000000   0.000000   999.000000 0.000000  
S266             0.000000   0.000000   0.000000   999.000000 0.000000  
S275             0.000000   0.000000   0.000000   999.000000 0.000000  
s204             0.000000   0.000000   0.000000   999.000000 0.000000  
S271             0.000000   0.000000   0.000000   999.000000 0.000000  
S260             0.000000   0.000000   0.000000   999.000000 0.000000  
N240!            0.000000   0.000000   0.000000   999.000000 0.000000  
N386!            0.000000   0.000000   0.000000   999.000000 0.000000  

[JUNCTIONS]
;;Name           Elevation  MaxDepth   InitDepth  SurDepth   Aponded   
;;-------------- ---------- ---------- ---------- ---------- ----------
; Name Elev ( Ymax Y0 Ysur Apond )
XXXXX03230       0.000000   88.382000  0.000000   0.000000   0.000000  
XXXXX03231       0.000000   88.339000  0.000000   0.000000   0.000000  
XXXXX03243       0.000000   88.209000  0.000000   0.000000   0.000000  
XXXXX03244       0.000000   88.498000  0.000000   0.000000   0.000000  
XXXXX03452       0.000000   88.082000  0.000000   0.000000   0.000000  
a18              0.000000   88.520000  0.000000   0.000000   0.000000  
XXXXX00309       0.000000   88.710000  0.000000   0.000000   0.000000  
4-058            0.000000   90.100000  0.000000   0.000000   0.000000  
4-059            0.000000   89.700000  0.000000   0.000000   0.000000  
4-060            0.000000   89.000000  0.000000   0.000000   0.000000  
XXXXX00236       0.000000   86.000000  0.000000   0.000000   0.000000  
XXXXX00237       0.000000   86.480000  0.000000   0.000000   0.000000  
XXXXX00238       0.000000   86.270000  0.000000   0.000000   0.000000  
XXXXX00248       0.000000   88.330000  0.000000   0.000000   0.000000  
XXXXX00249       0.000000   87.610000  0.000000   0.000000   0.000000  
XXXXX00250       0.000000   87.000000  0.000000   0.000000   0.000000  
XXXXX00252       0.000000   87.000000  0.000000   0.000000   0.000000  
XXXXX00254       0.000000   87.010000  0.000000   0.000000   0.000000  
XXXXX00256       0.000000   87.360000  0.000000   0.000000   0.000000  
XXXXX00258       0.000000   87.400000  0.000000   0.000000   0.000000  
XXXXX00260       0.000000   87.000000  0.000000   0.000000   0.000000  
XXXXX00262       0.000000   87.000000  0.000000   0.000000   0.000000  
XXXXX00264       0.000000   87.280000  0.000000   0.000000   0.000000  
XXXXX00265       0.000000   86.870000  0.000000   0.000000   0.000000  
XXXXX00268       0.000000   86.600000  0.000000   0.000000   0.000000  
XXXXX00269       0.000000   86.070000  0.000000   0.000000   0.000000  
XXXXX00272       0.000000   87.030000  0.000000   0.000000   0.000000  
XXXXX00277       0.000000   86.880000  0.000000   0.000000   0.000000  
XXXXX00280       0.000000   87.730000  0.000000   0.000000   0.000000  
XXXXX00281       0.000000   87.470000  0.000000   0.000000   0.000000  
XXXXX00295       0.000000   86.060000  0.000000   0.000000   0.000000  
XXXXX00296       0.000000   85.530000  0.000000   0.000000   0.000000  
XXXXX00298       0.000000   86.040000  0.000000   0.000000   0.000000  
XXXXX00299       0.000000   86.780000  0.000000   0.000000   0.000000  
XXXXX00300       0.000000   87.280000  0.000000   0.000000   0.000000  
XXXXX00301       0.000000   86.460000  0.000000   0.000000   0.000000  
XXXXX00302       0.000000   86.700000  0.000000   0.000000   0.000000  
XXXXX00303       0.000000   86.780000  0.000000   0.000000   0.000000  
XXXXX00304       0.000000   87.000000  0.000000   0.000000   0.000000  
XXXXX00305       0.000000   85.720000  0.000000   0.000000   0.000000  
XXXXX00306       0.000000   86.580000  0.000000   0.000000   0.000000  
XXXXX00313       0.000000   88.500000  0.000000   0.000000   0.000000  
XXXXX00314       0.000000   88.650000  0.000000   0.000000   0.000000  
XXXXX00315       0.000000   88.920000  0.000000   0.000000   0.000000  
XXXXX02830       0.000000   86.380000  0.000000   0.000000   0.000000  
XXXXX02831       0.000000   86.600000  0.000000   0.000000   0.000000  
XXXXX02832       0.000000   87.560000  0.000000   0.000000   0.000000  
XXXXX02833       0.000000   87.750000  0.000000   0.000000   0.000000  
XXXXX02846       0.000000   89.750000  0.000000   0.000000   0.000000  
XXXXX02851       0.000000   90.000000  0.000000   0.000000   0.000000  
XXXXX02852       0.000000   87.350000  0.000000   0.000000   0.000000  
XXXXX02853       0.000000   86.370000  0.000000   0.000000   0.000000  
XXXXX02854       0.000000   87.360000  0.000000   0.000000   0.000000  
XXXXX02855       0.000000   86.390000  0.000000   0.000000   0.000000  
XXXXX02857       0.000000   87.300000  0.000000   0.000000   0.000000  
XXXXX02858       0.000000   86.530000  0.000000   0.000000   0.000000  
XXXXX02860       0.000000   87.390000  0.000000   0.000000   0.000000  
XXXXX02862       0.000000   86.690000  0.000000   0.000000   0.000000  
XXXXX02865       0.000000   87.230000  0.000000   0.000000   0.000000  
XXXXX02866       0.000000   88.770000  0.000000   0.000000   0.000000  
XXXXX02867       0.000000   88.200000  0.000000   0.000000   0.000000  
XXXXX02868       0.000000   88.600000  0.000000   0.000000   0.000000  
XXXXX02869       0.000000   87.600000  0.000000   0.000000   0.000000  
XXXXX02871       0.000000   87.950000  0.000000   0.000000   0.000000  
XXXXX02872       0.000000   87.970000  0.000000   0.000000   0.000000  
XXXXX02873       0.000000   87.170000  0.000000   0.000000   0.000000  
XXXXX02875       0.000000   87.130000  0.000000   0.000000   0.000000  
XXXXX02876       0.000000   85.870000  0.000000   0.000000   0.000000  
XXXXX02877       0.000000   86.290000  0.000000   0.000000   0.000000  
XXXXX02878       0.000000   86.300000  0.000000   0.000000   0.000000  
XXXXX02879       0.000000   85.970000  0.000000   0.000000   0.000000  
XXXXX02880       0.000000   86.300000  0.000000   0.000000   0.000000  
XXXXX02881       0.000000   86.780000  0.000000   0.000000   0.000000  
XXXXX02882       0.000000   86.680000  0.000000   0.000000   0.000000  
XXXXX02883       0.000000   86.500000  0.000000   0.000000   0.000000  
XXXXX02884       0.000000   86.230000  0.000000   0.000000   0.000000  
XXXXX02885       0.000000   87.400000  0.000000   0.000000   0.000000  
XXXXX02887       0.000000   87.650000  0.000000   0.000000   0.000000  
XXXXX02888       0.000000   87.460000  0.000000   0.000000   0.000000  
XXXXX02889       0.000000   87.300000  0.000000   0.000000   0.000000  
XXXXX02890       0.000000   87.110000  0.000000   0.000000   0.000000  
XXXXX02891       0.000000   87.010000  0.000000   0.000000   0.000000  
XXXXX02893       0.000000   86.870000  0.000000   0.000000   0.000000  
XXXXX02894       0.000000   87.350000  0.000000   0.000000   0.000000  
XXXXX02895       0.000000   87.350000  0.000000   0.000000   0.000000  
XXXXX02896       0.000000   86.700000  0.000000   0.000000   0.000000  
XXXXX02897       0.000000   86.480000  0.000000   0.000000   0.000000  
XXXXX02898       0.000000   87.000000  0.000000   0.000000   0.000000  
XXXXX02899       0.000000   86.740000  0.000000   0.000000   0.000000  
XXXXX02900       0.000000   86.700000  0.000000   0.000000   0.000000  
XXXXX02901       0.000000   86.800000  0.000000   0.000000   0.000000  
XXXXX02902       0.000000   87.060000  0.000000   0.000000   0.000000  
XXXXX02903       0.000000   87.200000  0.000000   0.000000   0.000000  
XXXXX02904       0.000000   86.670000  0.000000   0.000000   0.000000  
XXXXX02905       0.000000   86.900000  0.000000   0.000000   0.000000  
XXXXX02906       0.000000   86.300000  0.000000   0.000000   0.000000  
XXXXX02907       0.000000   86.600000  0.000000   0.000000   0.000000  
XXXXX02909       0.000000   86.580000  0.000000   0.000000   0.000000  
XXXXX02910       0.000000   86.560000  0.000000   0.000000   0.000000  
XXXXX02911       0.000000   86.580000  0.000000   0.000000   0.000000  
XXXXX02912       0.000000   86.110000  0.000000   0.000000   0.000000  
XXXXX02913       0.000000   86.950000  0.000000   0.000000   0.000000  
XXXXX02916       0.000000   86.800000  0.000000   0.000000   0.000000  
XXXXX02917       0.000000   86.650000  0.000000   0.000000   0.000000  
XXXXX02918       0.000000   86.390000  0.000000   0.000000   0.000000  
XXXXX02919       0.000000   86.350000  0.000000   0.000000   0.000000  
XXXXX02920       0.000000   86.700000  0.000000   0.000000   0.000000  
XXXXX02921       0.000000   86.700000  0.000000   0.000000   0.000000  
XXXXX02923       0.000000   88.000000  0.000000   0.000000   0.000000  
XXXXX02924       0.000000   86.520000  0.000000   0.000000   0.000000  
XXXXX02926       0.000000   88.900000  0.000000   0.000000   0.000000  
XXXXX02927       0.000000   86.900000  0.000000   0.000000   0.000000  
XXXXX02928       0.000000   86.900000  0.000000   0.000000   0.000000  
XXXXX02931       0.000000   86.800000  0.000000   0.000000   0.000000  
XXXXX02932       0.000000   86.800000  0.000000   0.000000   0.000000  
XXXXX02933       0.000000   87.000000  0.000000   0.000000   0.000000  
XXXXX02934       0.000000   87.100000  0.000000   0.000000   0.000000  
XXXXX02935       0.000000   86.280000  0.000000   0.000000   0.000000  
XXXXX02937       0.000000   86.420000  0.000000   0.000000   0.000000  
XXXXX02938       0.000000   86.800000  0.000000   0.000000   0.000000  
XXXXX02939       0.000000   86.800000  0.000000   0.000000   0.000000  
XXXXX02940       0.000000   86.560000  0.000000   0.000000   0.000000  
XXXXX02941       0.000000   86.600000  0.000000   0.000000   0.000000  
XXXXX02942       0.000000   86.350000  0.000000   0.000000   0.000000  
XXXXX02943       0.000000   86.880000  0.000000   0.000000   0.000000  
XXXXX02944       0.000000   86.700000  0.000000   0.000000   0.000000  