[TITLE]
Scenario Run :  BASE

[OPTIONS]
;Option and Files Scenario Set: BASE, Base Simulation Options
FLOW_UNITS	CFS
INFILTRATION	GREEN_AMPT
FLOW_ROUTING	DYNWAVE
ALLOW_PONDING	YES
DRY_DAYS	0.000000
SKIP_STEADY_STATE 	NO
IGNORE_RAINFALL	NO
IGNORE_SNOWMELT	NO
IGNORE_GROUNDWATER	NO
IGNORE_QUALITY	NO
FORCE_MAIN_EQUATION	H-W
LINK_OFFSETS	DEPTH
MIN_SLOPE	0.000000
SYS_FLOW_TOL	5
LAT_FLOW_TOL	5
START_DATE	01/01/2000
START_TIME	00:00
END_DATE	01/06/2000
END_TIME	00:00
REPORT_START_DATE	01/01/2000
REPORT_START_TIME	00:00
SWEEP_START	01/01
SWEEP_END	01/01
WET_STEP	00:15:00
DRY_STEP	01:00:00
ROUTING_STEP	30
REPORT_STEP	00:15:00
INERTIAL_DAMPING	NONE
VARIABLE_STEP	0.750000
MINIMUM_STEP	0.000000
LENGTHENING_STEP	30
MIN_SURFAREA	12.557000
NORMAL_FLOW_LIMITED	BOTH
MAX_TRIALS	8
HEAD_TOLERANCE	0.001000

[FILES]

[RAINGAGES]

[HYDROGRAPHS]

[EVAPORATION]
CONSTANT	0.000000
DRY_ONLY	NO

[TEMPERATURE]

[ADJUSTMENTS]

[SUBCATCHMENTS]

[SUBAREAS]

[INFILTRATION]

[AQUIFERS]

[GROUNDWATER]

[GWF]

[SNOWPACKS]

[JUNCTIONS]
0042BFFF6C164FC5ACD9843F14A24ACC	5486.392000	7.008000	0.000000	0.000000	100.000000
006C99F3EB9E4BE0AC6F9152AFDAC5BD	5650.070000	9.900000	0.000000	0.000000	100.000000
0289FEF33D6D4A7FA7E6052A3B1D633E	5539.728000	10.272000	0.000000	0.000000	100.000000
031D7EEC508B4AF1B39573D1958BF4BE	5462.746000	7.917000	0.000000	0.000000	100.000000
03468DBCEFEB4324B72EC0CC899B4852	5539.917000	12.083000	0.000000	0.000000	100.000000
042305E7BA264A3BBE88A19D45FF4AB6	5510.359000	20.419000	0.000000	0.000000	100.000000
04D7948906B049E08F0E690EA42D6899	5573.029000	10.071000	0.000000	0.000000	100.000000
052A60D949084DA09277D9A2A29D6B41	5498.723000	6.277000	0.000000	0.000000	100.000000
05B174CA37614EE18C7A7D71B1420C70	5637.370000	8.000000	0.000000	0.000000	100.000000
068A08AEDCE34073AF1365F8FBB23995	5557.217000	10.183000	0.000000	0.000000	100.000000
06A635C0656F46DF8EF1CE0CCC5205FF	5520.942000	9.858000	0.000000	0.000000	100.000000
072D2E82037A420297D7606A83595602	5618.870000	13.700000	0.000000	0.000000	100.000000
0746A45822B4402AA3A942A04D9EDEB2	5652.670000	7.900000	0.000000	0.000000	100.000000
0754059D447E46349B51EF23D7A9A664	5506.007000	7.093000	0.000000	0.000000	100.000000
07838713808F46CF9C1D51DE7C2C52AE	5483.592000	6.108000	0.000000	0.000000	100.000000
07D3E50EB84840D7971AA86DF0A5EBAC	5639.070000	7.300000	0.000000	0.000000	100.000000
07DEA41A49CD44EAAD69044B3629826A	5673.899000	16.501000	0.000000	0.000000	100.000000
08D6A1C275C74B18B09C1D8E96DD80D7	5564.629000	11.071000	0.000000	0.000000	100.000000
09DC5924DB8E4A55A4EC679C601DDE5A	5555.491000	8.400000	0.000000	0.000000	100.000000
0A337EA7F48D4C5EA78E04D85FCFA999	5490.211000	25.372000	0.000000	0.000000	100.000000
0A5EFBDE6D5D45619A7171B8DFAFAA4D	5507.013000	15.226000	0.000000	0.000000	100.000000
0AA1E4D9E9AA43039C14E90FBB3489B3	5477.392000	6.108000	0.000000	0.000000	100.000000
0B689A52F0724BFD91CC91B26DBDAD6A	5527.817000	10.083000	0.000000	0.000000	100.000000
0B77C4F821384871A9E47653403ADE31	5531.123000	5.877000	0.000000	0.000000	100.000000
0CA19565EFF84B3F8F55B432911BA382	5566.717000	10.083000	0.000000	0.000000	100.000000
0CBC6967E6924144BA9087D138F4ED29	5672.417000	10.683000	0.000000	0.000000	100.000000
0E5C08DC9BF54BD187B4FE56005AC0FC	5555.129000	10.071000	0.000000	0.000000	100.000000
0EB9F18F609943919E40FDF080E4E2AF	5526.467000	108.610000	0.000000	0.000000	100.000000
0EC05B5B49A343C5A0EF1C8552A5691F	5517.623000	10.377000	0.000000	0.000000	100.000000
0F2C35E11DF94F409BA7918E5B41410D	5512.559000	18.302000	0.000000	0.000000	100.000000
0F44A71505904BF381FB0C313641DB83	5503.623000	5.877000	0.000000	0.000000	100.000000
0FC78A19205149CF87B97E11B9481795	5511.092000	5.908000	0.000000	0.000000	100.000000
1023508C214F419CACB9F50C858FA084	5465.992000	7.008000	0.000000	0.000000	100.000000
10946030CF6B401F9D4D240E0152C16E	5608.117000	8.983000	0.000000	0.000000	100.000000
113D145428BF4722A993846D3FBAAD10	5618.270000	14.600000	0.000000	0.000000	100.000000
11677ED82B134B24AA6A7D9569FD2965	5459.542000	9.316000	0.000000	0.000000	100.000000
11B5B6CF1421451CA2E070FA63400A9A	5514.601000	10.199000	0.000000	0.000000	100.000000
11DF939C34B24B5FBBE1287F682FA0F8	5467.300000	12.992000	0.000000	0.000000	100.000000
12835226ECED42418EFDBE3800231597	5667.970000	6.900000	0.000000	0.000000	100.000000
133D0D5E51804F8CBA6F607198927C0A	5477.632000	10.170000	0.000000	0.000000	100.000000
139D28E9FE554C7F9DBDA3B5547FA3A1	5526.169000	9.100000	0.000000	0.000000	100.000000
142C6F4F25994C4890C36FE6F0B52279	5667.470000	8.000000	0.000000	0.000000	100.000000
148E3C9E7CC64047AB5C117F047B7311	5532.623000	5.377000	0.000000	0.000000	100.000000
14C49C0DAEF2438A99884DDEFCF48F41	5644.117000	10.083000	0.000000	0.000000	100.000000
14DBDEF4A56A4570A50DB18F6166F986	5480.026000	2.779000	0.000000	0.000000	100.000000
1531A19433734147B84D660CBBFF5199	5638.670000	8.500000	0.000000	0.000000	100.000000
1549ED0D0FCA4827A9EE4044F2A9A85E	5641.370000	8.000000	0.000000	0.000000	100.000000
1558A81A0A8946758BEF66DBC00C2EE6	5483.158000	5.900000	0.000000	0.000000	100.000000
157AA0352F3548F09C9EA240E26E2761	5510.079000	7.921000	0.000000	0.000000	100.000000
157B8A7090654FFB82F691FAE55A2F0D	5530.623000	4.877000	0.000000	0.000000	100.000000
1677A2F797C34DF1AEE10394B1CE0043	5456.292000	7.583000	0.000000	0.000000	100.000000
17085084A4F74ED38F0C3AB0ED5BC718	5641.370000	7.830000	0.000000	0.000000	100.000000
17E5057B550246568B9C5F7293DF6D64	5647.070000	5.010000	0.000000	0.000000	100.000000
18313E34B6F4466B875265FF6EA94814	5464.692000	0.408000	0.000000	0.000000	100.000000
1895E63D28B3489AA35476162D94E290	5501.379000	8.321000	0.000000	0.000000	100.000000
192D0187B9F34A489A0FD253DD79218F	5579.991000	10.109000	0.000000	0.000000	100.000000
193FF137097A4D849AB13D932CB3B3A3	5501.707000	6.393000	0.000000	0.000000	100.000000
1A4F3073EE274107A9B785A91A36324E	5453.864000	21.258000	0.000000	0.000000	100.000000
1A9654E882BA48C7824E8E0D0A4FB0FB	5489.923000	6.077000	0.000000	0.000000	100.000000
1A9EB922BBCF4C95B679D2EA3498C013	5472.192000	5.808000	0.000000	0.000000	100.000000
1AFA396593AA420A8A8F941134206DB6	5581.829000	10.071000	0.000000	0.000000	100.000000
1B7B55EA92874253B3CB39C347339896	5492.539000	6.700000	0.000000	0.000000	100.000000
1BC2ECAD29B84B759DB31E5EC98A37B8	5521.192000	8.708000	0.000000	0.000000	100.000000
1C9F3E11D5F244979D35B50ED57ADEB1	5454.392000	7.908000	0.000000	0.000000	100.000000
1CA36F89CA5746C6998CEBA663BBA53C	5493.242000	10.658000	0.000000	0.000000	100.000000
1CB9CE92348A45318546152A4A475B45	5654.870000	8.000000	0.000000	0.000000	100.000000
1CD80C93F9D34322A9BE76F4813D163A	5547.328000	10.272000	0.000000	0.000000	100.000000
1D01436FE6204C2F9A5F65DE9B4E7201	5479.742000	10.058000	0.000000	0.000000	100.000000
1D187B6E79CF42BD88428740B07E3660	5685.017000	6.000000	0.000000	0.000000	100.000000
1E1C5282F36E42F4AB830E1763EE1A6D	5576.017000	22.168000	0.000000	0.000000	100.000000
1FB0A27280FF4AAA9F94891AF6EA066F	5640.870000	8.000000	0.000000	0.000000	100.000000
20A595A0935842E9A8077AF3B83B9C3A	5500.392000	6.408000	0.000000	0.000000	100.000000
20D70BAC74C8436C9D5AE77F5147FB77	5567.556000	12.091000	0.000000	0.000000	100.000000
213E0FF8F0124229A5118A89E158305A	5469.142000	9.958000	0.000000	0.000000	100.000000
215AC00024D0463DB8ECD7059B780E5F	5678.241000	10.559000	0.000000	0.000000	100.000000
231A0FF7D8944AB7A0C76675B27211C7	5610.136000	43.500000	0.000000	0.000000	100.000000
234D9A1F49E248DD86FE03001090DCF0	5591.944000	43.831000	0.000000	0.000000	100.000000
2362BA8801E04C5084378CFE0FFF2485	5521.905000	19.883000	0.000000	0.000000	100.000000
23A2BB124D9E4152BE7A6F63FFEA0D26	5494.392000	5.708000	0.000000	0.000000	100.000000
2449174C97DB4DC880C4B165A2456A0A	5654.570000	8.100000	0.000000	0.000000	100.000000
2450F86ED1284D919F107A09B99D9550	5656.870000	11.000000	0.000000	0.000000	100.000000
25A5F4CBC86D4471868C111865F90B70	5643.170000	8.200000	0.000000	0.000000	100.000000
2767379237224EE0B3966E0A2F3DD28E	5464.492000	7.008000	0.000000	0.000000	100.000000
2788589D6EF1423D974B030DAE16DF7B	5647.470000	9.400000	0.000000	0.000000	100.000000
27B803A1338E408F912B27E6B7CD312F	5638.670000	8.800000	0.000000	0.000000	100.000000
27B9C46C0700412C9803F02B50B9C46D	5537.121000	8.217000	0.000000	0.000000	100.000000
282B0C2BC29F41F386C69A27F46AAA58	5645.862000	12.339000	0.000000	0.000000	100.000000
283B99C3674E468EA28E982C3D6B2127	5533.123000	5.877000	0.000000	0.000000	100.000000
28ABC3D193784181A01780326D79FB89	5480.323000	7.800000	0.000000	0.000000	100.000000
28F896BC24C148009514CF08B177ACE7	5492.550000	6.200000	0.000000	0.000000	100.000000
29BE9B172CCA4D42BF8D99F0BCFBEB49	5503.607000	7.593000	0.000000	0.000000	100.000000
2AFCFFB8B28144D4B609BE92755F7599	5521.905000	18.236000	0.000000	0.000000	100.000000
2B7B2BBF29FA44A68D930D80CB28EDE4	5670.770000	8.000000	0.000000	0.000000	100.000000
2B835AFE23F74AF8BB434A006F39117B	5587.269000	7.800000	0.000000	0.000000	100.000000
2B8E9EEBA9654B62836A08E20CD46B42	5515.792000	6.008000	0.000000	0.000000	100.000000
2C2E41977C5348F1967499745BC78930	5594.447000	9.955000	0.000000	0.000000	100.000000
2C3B42F181CF4485884D379316274C92	5537.980000	60.596000	0.000000	0.000000	100.000000
2C48B814B703485A82DF4BD8DD088A5C	5669.442000	8.658000	0.000000	0.000000	100.000000
2D334F9B3ACA49BDBE35C348A1702A10	5620.910000	7.460000	0.000000	0.000000	100.000000
2D885BF3EDBF4E34AE106CC74A236C65	5593.441000	10.059000	0.000000	0.000000	100.000000
2DC5A264C1A8476683E0B7F064EFA439	5530.401000	10.599000	0.000000	0.000000	100.000000
2E058327DB9D4514ABA04F2792673E26	5570.217000	12.083000	0.000000	0.000000	100.000000
2E314A784A1E4EFBA7C8E4A38F59BF1D	5680.946000	6.400000	0.000000	0.000000	100.000000
2E76DEADE6394C5A8EA78F488602F411	5541.501000	9.699000	0.000000	0.000000	100.000000
2EBCFD4238EF48EF85BFD27C9CBB19B3	5538.917000	10.483000	0.000000	0.000000	100.000000
2EC5AA6631A2469FBC4FDE2805CA64CF	5594.554000	34.657000	0.000000	0.000000	100.000000
2F25261D6BF54F1A998A2BF153530D91	5482.903000	8.997000	0.000000	0.000000	100.000000
2F59B5DCBBFF405083F4EAD29374707C	5524.604000	21.070000	0.000000	0.000000	100.000000
2F8A1D8606EE4A2C90990A58A18EFD24	5675.170000	7.100000	0.000000	0.000000	100.000000
2F9EF996A0414D2AB4DEC2384A0530DE	5510.079000	8.321000	0.000000	0.000000	100.000000
2FC84B215DC145AA90E4FDD267EEAD39	5631.570000	7.800000	0.000000	0.000000	100.000000
30384B0BA32048C8B7B1E36FA1455DD4	5538.401000	10.599000	0.000000	0.000000	100.000000
3081D331918F447ABA291F42461B6E4A	5643.470000	8.000000	0.000000	0.000000	100.000000
3121FBE4C3044CAF9D77394F9FCB4AA6	5628.570000	7.900000	0.000000	0.000000	100.000000
31C9BAB0027A4698B3AF0D199D5D33B9	5637.950000	13.500000	0.000000	0.000000	100.000000
33860E1EDBCA48AC8CBD972F69A9E417	5530.117000	10.083000	0.000000	0.000000	100.000000
3410DAF1E1F34316AAAE3E054FFEC4D3	5563.601000	9.399000	0.000000	0.000000	100.000000
3439BC63469A405199741671762B4428	5525.851000	70.956000	0.000000	0.000000	100.000000
3509120965264E8D9CDD6FBE92D1A68E	5570.801000	9.199000	0.000000	0.000000	100.000000
368FD75771FB47749F1EF852F78A58C0	5670.899000	9.400000	0.000000	0.000000	100.000000
386391C58E8B4A969AF14EE0736395B5	5519.301000	8.199000	0.000000	0.000000	100.000000
395C2A1113904486BC95FD7442911C28	5621.526000	27.409000	0.000000	0.000000	100.000000
39883F694341402BBC3F66549FA825BA	5558.620000	8.017000	0.000000	0.000000	100.000000
3996139F85FD4924A968D0D1918EA683	5658.470000	5.000000	0.000000	0.000000	100.000000
39D392FC16C54E97996329931E52A4D1	5515.823000	21.100000	0.000000	0.000000	100.000000
3ABC67CBFCED43E48CDEC6B4DBDA9049	5634.870000	7.700000	0.000000	0.000000	100.000000
3AEBF5788FAE4548A96F3C4F11F62B1E	5594.295000	10.161000	0.000000	0.000000	100.000000
3B75E8CA287F4AA586F2B459D70EF0A3	5646.070000	8.000000	0.000000	0.000000	100.000000
3BD241D3B0FD48ADA5A004EBB90E51D1	5635.170000	8.100000	0.000000	0.000000	100.000000
3C3DB72B87004CD680B64D21B6B95D9C	5454.992000	7.008000	0.000000	0.000000	100.000000
3CCEB73AE1D34343921630EF86B5298D	5625.270000	7.500000	0.000000	0.000000	100.000000
3EFDCAD80D57458A9001210D29ED8E70	5504.817000	8.100000	0.000000	0.000000	100.000000
3F6C52022D3843258E2ACAEE28CE2CE2	5502.917000	13.183000	0.000000	0.000000	100.000000
3F8A212FC3D041F1A5ADE1FCAF524646	5590.001000	9.599000	0.000000	0.000000	100.000000
4039EE86108C42909B94F02BEB235410	5533.426000	82.033000	0.000000	0.000000	100.000000
403E736D1F4E44E085AF9F46D97FA943	5448.992000	6.008000	0.000000	0.000000	100.000000
409BA6621A214B61BD6AD1323F0092F2	5673.370000	8.000000	0.000000	0.000000	100.000000
4103DDF2B12F40588D3BA17AF009539D	5521.353000	20.627000	0.000000	0.000000	100.000000
4114C278E1E9405CAE3A595BC1DFA87E	5528.227000	16.048000	0.000000	0.000000	100.000000
415F5B7AB2E94483A183A2CD79CDF7B8	5491.255000	18.244000	0.000000	0.000000	100.000000
417DC9986F4F42088F21F0A4D8C629DA	5506.092000	7.308000	0.000000	0.000000	100.000000
41F3DA1977D8409FBC492C179064CDB5	5508.240000	8.217000	0.000000	0.000000	100.000000
422A726461624951918F19F10D0B07CE	5666.070000	8.100000	0.000000	0.000000	100.000000
4244A09CD597414FA31A69D90AE9FBF9	5571.828000	7.472000	0.000000	0.000000	100.000000
42AC2F620DF94563A130D6FD90EDF2B5	5490.814000	13.886000	0.000000	0.000000	100.000000
42CAF8A11AF94C85A239A5C873DAFAD7	5577.436000	7.800000	0.000000	0.000000	100.000000
42D573C051554E669E8542AF259C2132	5478.831000	5.900000	0.000000	0.000000	100.000000
4415782E080040BA8D83BC2A933FA935	5654.770000	7.100000	0.000000	0.000000	100.000000
443B85B90AB0436C832CC03DB703C260	5478.691000	7.917000	0.000000	0.000000	100.000000
446C79C6CE0646DBA7E0325062BEDCF0	5619.770000	14.000000	0.000000	0.000000	100.000000
446FF79BB5974E64BC5AA36B07844C54	5425.392000	6.408000	0.000000	0.000000	100.000000
44C0FB54BEE349CF9654C3AE9E1951E7	5501.607000	11.993000	0.000000	0.000000	100.000000
44CD4034E3904E1999F806DE018BFC0E	5575.458000	8.000000	0.000000	0.000000	100.000000
44D20DAB774149CE8D2C26F3BCC091B1	5655.570000	9.400000	0.000000	0.000000	100.000000
44F274295C774885A092B43C8A72E9CC	5636.470000	7.900000	0.000000	0.000000	100.000000
453748E90CDE488D8CBD37973036DCCE	5490.792000	6.208000	0.000000	0.000000	100.000000
456D847AA9F948BCADF6329CEA2A88C8	5640.117000	10.083000	0.000000	0.000000	100.000000
4630D415EB544E89B1920506DAA099B0	5649.570000	8.000000	0.000000	0.000000	100.000000
4651C70BFEB845F0BCAF6035FFAAE148	5453.392000	7.008000	0.000000	0.000000	100.000000
46696ABE877E40439B0FD9581362F19E	5578.401000	9.599000	0.000000	0.000000	100.000000
4670AFCDBA7348D8BFB33EC1AC6C9693	5653.817000	10.083000	0.000000	0.000000	100.000000
46AF77B017F44BE1B4FD7748E6FB3572	5634.870000	8.000000	0.000000	0.000000	100.000000
475A1D2633DE4390A54BFD9BE2B915B4	5514.492000	6.208000	0.000000	0.000000	100.000000
4784714BEEAC46E1BABADD6E8110E89C	5513.792000	6.908000	0.000000	0.000000	100.000000
48151DC7215B4C22A54C5D3173E5A01A	5599.087000	9.000000	0.000000	0.000000	100.000000
4831C0A9A4984FDE8D08D6933C5BBED7	5521.353000	25.642000	0.000000	0.000000	100.000000
498D4143FAB44CD2A27C3D115C4BC00D	5485.092000	5.908000	0.000000	0.000000	100.000000
49F54569225743CA91D617B8BFFB74E7	5509.742000	9.958000	0.000000	0.000000	100.000000
4A009EB2131E4445837D18A5F54E81CF	5632.170000	7.900000	0.000000	0.000000	100.000000
4AF63600654849E7862505E3E859D484	5669.641000	11.359000	0.000000	0.000000	100.000000
4AFFEF950F7F4AF8A359CF38FDB8B84D	5661.870000	7.900000	0.000000	0.000000	100.000000
4B6EE8349F504D56B9E8E0B2715E7629	5508.000000	9.500000	0.000000	0.000000	100.000000
4C8D533D6916422CB5F342E8A8A4D470	5610.367000	60.705000	0.000000	0.000000	100.000000
4C9FF9A9152F4908B0656EFD20691851	5625.717000	12.183000	0.000000	0.000000	100.000000
4CBC1E65888F4BFBBB6F9D2EFEEBF465	5506.807000	9.793000	0.000000	0.000000	100.000000
4D76314B10FD4AA1BBEB7565344B2DEE	5616.648000	8.300000	0.000000	0.000000	100.000000
4DBC0765D7704F35B88549F7FE98997B	5523.761000	18.238000	0.000000	0.000000	100.000000
4DCE94255F9D436FBC5926A6D9FBC058	5589.503000	13.097000	0.000000	0.000000	100.000000
4EDEE3CEA61F4A3AADFB590E1A2A8421	5518.246000	14.108000	0.000000	0.000000	100.000000
50142C88C0CC42B8973FE688F19C5563	5671.441000	10.559000	0.000000	0.000000	100.000000
50A62533DA5643358E4D5441A3A71723	5647.117000	10.083000	0.000000	0.000000	100.000000
50BDC9AD184940DAA63B2CA722757EE7	5507.692000	7.108000	0.000000	0.000000	100.000000
51409AD09BC74FE1BD6DF8DA3B4DA021	5520.992000	8.808000	0.000000	0.000000	100.000000
51478A99D796485D84ED3816062B72A0	5575.583000	8.000000	0.000000	0.000000	100.000000
51CAB75870E14EB88B9B5FCE0131A430	5496.139000	8.361000	0.000000	0.000000	100.000000
52361F73A80E49AEB0675EAC0501209D	5544.429000	12.071000	0.000000	0.000000	100.000000
524F2B802403442BA9FFBAF82988AB31	5498.292000	6.208000	0.000000	0.000000	100.000000
534743E269C544819F317443037F8B52	5527.026000	132.005000	0.000000	0.000000	100.000000
536D1BC6FF104B12809B7ACDB70EA943	5630.656000	9.600000	0.000000	0.000000	100.000000
5399D37D6F354E618A97BF9D5C03D11F	5441.192000	11.808000	0.000000	0.000000	100.000000
54B901D586BD4D5A89AB459FF4ABF380	5664.340000	7.330000	0.000000	0.000000	100.000000
55396C3E75FC438C95A5F691AA4141DC	5651.070000	8.200000	0.000000	0.000000	100.000000
55E77B3FB37446FFAB93B9F336EDC209	5574.328000	11.072000	0.000000	0.000000	100.000000
5623819FD68747F8920034C4B927444B	5646.270000	8.100000	0.000000	0.000000	100.000000
563799007CDE44BAA648F10B3B10EDBE	5486.592000	6.908000	0.000000	0.000000	100.000000
5639683B5BF84EEB8BA5208B6AD9A3F1	5594.541000	11.359000	0.000000	0.000000	100.000000
5640F00BEB7E4880932E428E25BA7053	5539.221000	53.353000	0.000000	0.000000	100.000000
56453316C07F4C92A8D0604FD93989D2	5643.470000	7.900000	0.000000	0.000000	100.000000
5664D54174154D4181E321404B5E1892	5675.870000	7.400000	0.000000	0.000000	100.000000
56B0911CA779407C84669C04C0A21C7A	5553.401000	8.599000	0.000000	0.000000	100.000000
56B936EABFC940D7BE477C311D953D31	5594.984000	58.630000	0.000000	0.000000	100.000000
56CD39E959494DBBB951508C9C5C004E	5680.117000	12.283000	0.000000	0.000000	100.000000
56E4334988A44216BCD361C1B93A654C	5481.892000	8.008000	0.000000	0.000000	100.000000
570DD2DBAE1D4B388FA54BDB2ABFA757	5616.171000	20.437000	0.000000	0.000000	100.000000
57F56648CFA247F192FADD51286E2F01	5596.729000	10.071000	0.000000	0.000000	100.000000
58063690D42B4F809F20B66CE2FD8152	5643.841000	9.200000	0.000000	0.000000	100.000000
58C9953BC63C42AA8B277358F69099C0	5561.101000	20.171000	0.000000	0.000000	100.000000
58D59C7D11114024A7BE81395F5D77AD	5451.826000	7.816000	0.000000	0.000000	100.000000
5992536622B1438B9983EC4F09005EE3	5537.729000	11.700000	0.000000	0.000000	100.000000
59A1928B25DE441C9B2089ADDEC0B3B4	5621.220000	17.413000	0.000000	0.000000	100.000000
5A0CFCF14DC04AAD90BFEFFF2D965924	5470.800000	16.000000	0.000000	0.000000	100.000000
5A1002385F604154828764A9A6091C4F	5636.370000	8.100000	0.000000	0.000000	100.000000
5A1A8BCDFC1C4DFA9F34BE3725DFEBC6	5495.292000	6.308000	0.000000	0.000000	100.000000
5A3EB113C9ED4601A4FE7AF4436CCF48	5583.245000	7.900000	0.000000	0.000000	100.000000
5A4240FE82D64BD9B06A59A5BD29203E	5534.123000	6.877000	0.000000	0.000000	100.000000
5A8A0FFE62A349309C50C394783246D3	5646.370000	9.700000	0.000000	0.000000	100.000000
5AD1EFFB580F422794188BB76E0169AE	5658.370000	7.000000	0.000000	0.000000	100.000000
5AE0552AA521485380797649C74A9B8E	5563.820000	10.380000	0.000000	0.000000	100.000000
5B4A194699A4480E995CC356DD453417	5627.300000	8.700000	0.000000	0.000000	100.000000
5BD69ECEE40A4164B93DFF56A6071CE5	5562.901000	9.599000	0.000000	0.000000	100.000000
5C0388D4CD404E12A7232675A9663748	5666.270000	8.000000	0.000000	0.000000	100.000000
5C959D90222A404EB7DA9E7020C07FB4	5537.601000	9.399000	0.000000	0.000000	100.000000
5CB2D46859F547E295415C3CD761F831	5639.970000	7.900000	0.000000	0.000000	100.000000
5E35C3D67B55490A96E55FDC9BFDC70B	5515.992000	6.108000	0.000000	0.000000	100.000000
5F37278845574A86BAB2746915E2EF85	5485.201000	14.225000	0.000000	0.000000	100.000000
5F5B47E5A5DD4572B417AB168056F46A	5489.991000	10.309000	0.000000	0.000000	100.000000
5F82D630728F4BEDBEEDBC938AE9CBC6	5645.270000	8.500000	0.000000	0.000000	100.000000
5F94EA2CA0CF4916A89592C14F068650	5424.392000	5.900000	0.000000	0.000000	100.000000
5FF173FE16E5463C97C2521D0F093627	5551.728000	11.172000	0.000000	0.000000	100.000000
600F27DAC4714528A738D5ED85E98554	5512.401000	9.599000	0.000000	0.000000	100.000000
609C031FB2E54C03ADEF5B2C4039A68A	5521.323000	14.677000	0.000000	0.000000	100.000000
60D2600A77FB4AA69C10F9D9B634D5CA	5475.592000	7.408000	0.000000	0.000000	100.000000
612E46C37C6840689DAD1511A0E3D44B	5581.529000	11.071000	0.000000	0.000000	100.000000
6229520199C441D285208112DCF434ED	5531.747000	89.132000	0.000000	0.000000	100.000000
62DA24435F094F3F93AE2C9ED2714322	5651.470000	8.100000	0.000000	0.000000	100.000000
64157FACA3B349EEBCBD887824B15416	5595.104000	7.800000	0.000000	0.000000	100.000000
646583E8BB4D4A429D7790C82D06D2E2	5592.501000	9.699000	0.000000	0.000000	100.000000
649BF7F6E78B4323A2D1E5F8FF698523	5646.170000	8.600000	0.000000	0.000000	100.000000
65495CFC95184398AE963BAFBA2A65CA	5609.120000	11.180000	0.000000	0.000000	100.000000
65773480AE38477CB1C372D9778BC2A3	5463.892000	6.108000	0.000000	0.000000	100.000000
66969584115B498C9DDD1E1443DD7B59	5512.114000	6.086000	0.000000	0.000000	100.000000
66FE17ED5C8745DB98FF1BE0EC1840C4	5457.192000	6.108000	0.000000	0.000000	100.000000
6A06B34F226540ADAE657FFADD831480	5509.107000	9.593000	0.000000	0.000000	100.000000
6A54EC1BDBC44167A9A2998CC4B03358	5650.741000	11.259000	0.000000	0.000000	100.000000
6B0EC91BBF2144EDB3D4899E9E44B3C8	5663.770000	7.400000	0.000000	0.000000	100.000000
6BBF2A615D5E4E78B3493991830DAEB4	5674.070000	7.900000	0.000000	0.000000	100.000000
6D36A8278EF14C8982F33976F683103C	5482.277000	12.758000	0.000000	0.000000	100.000000
6DB3F6726563406DB7D4D849E33BA660	5562.828000	10.072000	0.000000	0.000000	100.000000
6DF5CA521D90494D952208D7120C70B2	5523.501000	9.499000	0.000000	0.000000	100.000000
6E299E4B9C1748C0943D40FD2453B1C8	5575.003000	6.900000	0.000000	0.000000	100.000000
6EA705FC72BB47C984173198971E0B36	5476.267000	15.819000	0.000000	0.000000	100.000000
6EAC60E3432D43B792C78A7EF5874CD6	5467.892000	7.108000	0.000000	0.000000	100.000000
6F177B7C33A44A3AAB7C496CBA51020E	5604.020000	8.500000	0.000000	0.000000	100.000000
6FDD71FE434E467EA53174B1E79A2F0E	5668.558000	5.500000	0.000000	0.000000	100.000000
704890E0821243EFAAC484B52742EBAB	5468.192000	7.908000	0.000000	0.000000	100.000000
705A5CD9B4E94A7CBD94186637F5989E	5474.782000	8.200000	0.000000	0.000000	100.000000
7075589817AC46ACADB13153AA9CAD37	5544.828000	11.172000	0.000000	0.000000	100.000000
70C1F47F4618433F94BC1D3C60675CFE	5656.441000	12.559000	0.000000	0.000000	100.000000
70F160BFD1B44A96996ABAEB948CD03A	5514.697000	5.300000	0.000000	0.000000	100.000000
7146B59957774AA89876CE495B6E7CD9	5437.592000	7.308000	0.000000	0.000000	100.000000
72530FB119C8486CA3B9F6D612066F40	5509.723000	15.779000	0.000000	0.000000	100.000000
725ECB9EEF7B4E8C94143BD709FAF465	5502.328000	8.000000	0.000000	0.000000	100.000000
72B205DD58774E8DB13C3218A883FD93	5654.170000	7.500000	0.000000	0.000000	100.000000
73396ACD34854A89A404012FA02B65DA	5643.970000	8.800000	0.000000	0.000000	100.000000
74041069BB204F658D6D585415216E91	5488.742000	5.900000	0.000000	0.000000	100.000000
740A2630703047C09B7A989D7508C1EB	5543.828000	10.172000	0.000000	0.000000	100.000000
741F82A0A04B495CB9BABA5B57405E23	5652.170000	8.300000	0.000000	0.000000	100.000000
7446094FBC4F45E7AE11483B33F15878	5430.392000	6.608000	0.000000	0.000000	100.000000
747643B4FBE44CC989D06552B045112E	5540.901000	10.599000	0.000000	0.000000	100.000000
750299244D47409DBE63DFE82BC72585	5673.942000	7.958000	0.000000	0.000000	100.000000
75556EE210214266B55B7BD1DFE76F35	5639.370000	9.200000	0.000000	0.000000	100.000000
75C43538B24C42E48C13B4D74EB867DD	5637.970000	8.000000	0.000000	0.000000	100.000000
75DC37C4D29842699F4D012D2A92795D	5539.181000	12.200000	0.000000	0.000000	100.000000
75DD5CBF48A643BB9F1A85244B7887FF	5642.470000	9.900000	0.000000	0.000000	100.000000
7714BD513FB145FA83CE7388CEA3DC6A	5679.217000	9.783000	0.000000	0.000000	100.000000
77449FFBD90A4B7B9B22AE79D849DFCE	5687.464000	8.436000	0.000000	0.000000	100.000000
77AEA19F848E41C5AA870DF0D0FD2187	5499.307000	14.568000	0.000000	0.000000	100.000000
796CD46775514B06B57FBD7C3875EE21	5497.892000	5.008000	0.000000	0.000000	100.000000
79E7A64E4A9846FAB4E118DE8C22C857	5492.190000	6.610000	0.000000	0.000000	100.000000
79ED2AAD46BF437AAE52D3F2C0648C92	5609.728000	10.172000	0.000000	0.000000	100.000000
79F3369C522E4628A9E05D61D000ADE6	5524.823000	7.177000	0.000000	0.000000	100.000000
7A4507CC35C54593AE3D882CC11C3976	5432.892000	6.008000	0.000000	0.000000	100.000000
7A9CF47918424849865B0BBEEAAC55FE	5501.992000	6.008000	0.000000	0.000000	100.000000
7A9EC1F14964459DB2D0E6F0A50D0BAF	5574.000000	2.975000	0.000000	0.000000	100.000000
7ABAB443139A40E39A733D8CDA36C977	5657.070000	8.100000	0.000000	0.000000	100.000000
7ACD6FB6FCC44C81B32BD9F68EC01006	5620.870000	10.800000	0.000000	0.000000	100.000000
7AF2FC982F3A41CD93F7A4A2B0862D40	5494.801000	9.199000	0.000000	0.000000	100.000000
7C2267D0A4C4450AA77BDBD798A729C7	5664.570000	7.100000	0.000000	0.000000	100.000000
7C4C0983032F448286F9E59750C1142F	5488.329000	8.016000	0.000000	0.000000	100.000000
7DE1193DB543406DB5656B06671C7261	5454.192000	10.808000	0.000000	0.000000	100.000000
7DEEA97C67214846941BEA467F05C8A9	5441.079000	5.056000	0.000000	0.000000	100.000000
7EB85AA36C944EA587C85B779D431EDA	5642.570000	7.500000	0.000000	0.000000	100.000000
81149465EC204009824BE79179F1227A	5677.658000	8.542000	0.000000	0.000000	100.000000
817CE2499AA5447CBC41A81BD216B168	5445.892000	6.908000	0.000000	0.000000	100.000000
81AC3088FB674F16A333C42BDFE62418	5505.107000	7.593000	0.000000	0.000000	100.000000
8205C1B7683D484F8E41523200358DA8	5574.901000	9.599000	0.000000	0.000000	100.000000
827B932348E5493FAA03387EEB99775B	5566.701000	9.599000	0.000000	0.000000	100.000000
828286BC0A2E4468A5862A6BD4D42456	5671.710000	6.990000	0.000000	0.000000	100.000000
828FCF04B04143CDB1E21601B4CC586F	5573.000000	6.111000	0.000000	0.000000	100.000000
832F118B396E4CA09B3B44B0FAEC30DD	5656.870000	9.600000	0.000000	0.000000	100.000000
8389FAA803A745678B9964EB2456B849	5583.728000	10.372000	0.000000	0.000000	100.000000
83B593532EB645578B3519E062D6155D	5475.316000	10.384000	0.000000	0.000000	100.000000
84C21E5BC7A0400296C0BAA106A87B7A	5671.225000	19.264000	0.000000	0.000000	100.000000
84DB29A318384B2883386E578F9E2C7E	5634.870000	7.900000	0.000000	0.000000	100.000000
851C6050210544F99C0655CDA8EC358C	5668.970000	8.100000	0.000000	0.000000	100.000000
852A550FE187412FA30F7E745A1973AF	5491.092000	5.908000	0.000000	0.000000	100.000000
85A4148B15BF42D981523339EECEE5CC	5486.923000	6.077000	0.000000	0.000000	100.000000
85E4AD9C4F754386AC08B5164E2D2C52	5570.082000	7.500000	0.000000	0.000000	100.000000
861D4FDE68EF4E67A70F9223F37D1025	5448.342000	16.911000	0.000000	0.000000	100.000000
877B0754F81B409DB23BEDE21155E501	5627.770000	7.600000	0.000000	0.000000	100.000000
89869449C7B74BAA8E4905F57A6BDF05	5524.417000	11.383000	0.000000	0.000000	100.000000
89A869E274344C6A873D7DB871C61382	5670.058000	8.042000	0.000000	0.000000	100.000000
89CDD73422414C76AC710F2F8750CA2D	5469.416000	8.117000	0.000000	0.000000	100.000000
89E13CDF3AD6420985A4766D97EA5704	5475.989000	8.236000	0.000000	0.000000	100.000000
8AEE7F84D1264E07865FC7542471FFDC	5473.192000	5.808000	0.000000	0.000000	100.000000
8B365D9E49074FA2AB6CFE82DAD742DE	5468.601000	8.016000	0.000000	0.000000	100.000000
8B6F6031D69E41D5B077CED3682E9D8E	5404.141000	8.349000	0.000000	0.000000	100.000000
8C0641D4D5494F89B34F75DD68794BEA	5662.470000	7.800000	0.000000	0.000000	100.000000
8DA593284F0642568B0D4DD6808A6F31	5520.809000	8.016000	0.000000	0.000000	100.000000
8E9AE8711BF848548127BFE46333C54C	5676.070000	7.800000	0.000000	0.000000	100.000000
90A5CF4F68464552B49468C1DF8A4D49	5549.617000	2.083000	0.000000	0.000000	100.000000
90B0949C2CB24A0593D3F9328FA7AC58	5528.228000	9.772000	0.000000	0.000000	100.000000
90FC5E7748C5486A8037B1C88BFCC6AD	5453.232000	21.246000	0.000000	0.000000	100.000000
915FDABE3F284A46ABCDFA7C00905116	5524.613000	13.300000	0.000000	0.000000	100.000000
91A95CACA7DB44F29FB0573D75A572BB	5673.970000	6.500000	0.000000	0.000000	100.000000
91D4274EA2FA4BBAB13D44008233BAC4	5472.903000	7.100000	0.000000	0.000000	100.000000
92765CA0C09249B7900AC29D26DE176A	5658.541000	9.459000	0.000000	0.000000	100.000000
929A340E875142C0A71EF2A606F6E118	5630.770000	8.000000	0.000000	0.000000	100.000000
92E89DE0A2A444308F8BEA63356A7643	5647.170000	7.900000	0.000000	0.000000	100.000000
934658B6750B4650B10BBAB8AD33F6CF	5556.126000	10.074000	0.000000	0.000000	100.000000
946A1D1753A542F5B39245FB57C4E396	5582.917000	10.083000	0.000000	0.000000	100.000000
948A9D635F99416598881DDC9F491226	5526.232000	95.169000	0.000000	0.000000	100.000000
94A621A36E4A42D8AB828000599E105C	5594.654000	22.485000	0.000000	0.000000	100.000000
9508B436F53548A49494C9EFE1248A15	5494.923000	5.977000	0.000000	0.000000	100.000000
956AF2F1687A489FB1F0257D7BB8B26B	5563.230000	7.800000	0.000000	0.000000	100.000000
95A517C59D3B40BDA2AC491739592ADD	5665.142000	8.958000	0.000000	0.000000	100.000000
95CFE4117B9E48EF8276B6E445332285	5536.118000	68.093000	0.000000	0.000000	100.000000
9638B61F07184EFBAF947DED866AC7B1	5637.970000	8.100000	0.000000	0.000000	100.000000
96BE12AD13EC49D196E82811B2134FCB	5461.592000	9.408000	0.000000	0.000000	100.000000
976A9830A48E4426AD128794112660B8	5623.132000	8.000000	0.000000	0.000000	100.000000
97AFA99FE91B458A9A65E551E3042B12	5442.892000	7.108000	0.000000	0.000000	100.000000
994431D3DBD847B299F8A9B4AA144AF9	5436.781000	0.975000	0.000000	0.000000	100.000000
99BED8A0ED614B8B956A596FB019B080	5573.385000	8.000000	0.000000	0.000000	100.000000
9A4895ADE49E452E99C379A591E159AC	5595.226000	78.258000	0.000000	0.000000	100.000000
9ACBB8014B82428D969A3538B3401139	5682.863000	6.100000	0.000000	0.000000	100.000000
9C0E1C5DFAC8429C9F9B1D99EC166ED6	5521.239000	8.121000	0.000000	0.000000	100.000000
9D771ACC5B764E66A32599C7279DEF52	5390.046000	312.954000	0.000000	0.000000	100.000000