[TITLE]
;;Project Title/Notes
Scenario Run :  BASE
Lowered Hobson Mill base flow from 0.5 MGD to 0.26 MGD to
accomodate for increasing NCC foul flow from 0 MGD to 0.24 MGD.

[OPTIONS]
;;Option             Value
FLOW_UNITS           MGD
INFILTRATION         HORTON
FLOW_ROUTING         DYNWAVE
LINK_OFFSETS         DEPTH
MIN_SLOPE            0
ALLOW_PONDING        YES
SKIP_STEADY_STATE    NO

START_DATE           08/08/2016
START_TIME           00:00:00
REPORT_START_DATE    08/08/2016
REPORT_START_TIME    00:00:00
END_DATE             08/10/2016
END_TIME             00:00:00
SWEEP_START          01/01
SWEEP_END            12/31
DRY_DAYS             0.000000
REPORT_STEP          00:15:00
WET_STEP             00:05:00
DRY_STEP             01:00:00
ROUTING_STEP         0:00:30 

INERTIAL_DAMPING     PARTIAL
NORMAL_FLOW_LIMITED  BOTH
FORCE_MAIN_EQUATION  H-W
VARIABLE_STEP        0.75
LENGTHENING_STEP     10
MIN_SURFAREA         12.557000
MAX_TRIALS           8
HEAD_TOLERANCE       0.005000
SYS_FLOW_TOL         5
LAT_FLOW_TOL         5
MINIMUM_STEP         0.500000
THREADS              1

[EVAPORATION]
;;Data Source    Parameters
;;-------------- ----------------
CONSTANT         0.000000
DRY_ONLY         NO

[RAINGAGES]
;;Name           Format    Interval SCF      Source    
;;-------------- --------- ------ ------ ----------
1                INTENSITY 1.000000 1.000000 TIMESERIES SOC             

[SUBCATCHMENTS]
;;Name           Rain Gage        Outlet           Area     %Imperv  Width    %Slope   CurbLen  SnowPack        
;;-------------- ---------------- ---------------- -------- -------- -------- -------- -------- ----------------
BAILEY-WASHINGTON_1 1                C49-033          23.404209 0.000000 2153.113707 3.071938 0.000000                 
BAILEY-WASHINGTON_2 1                S38-067          6.318927 0.000000 1118.772195 0.200115 0.000000                 
BAILEY-WASHINGTON_3 1                S01-073          1.947740 0.000000 621.134294 0.232696 0.000000                 
BAILEY-WASHINGTON_4 1                S01-053          1.207020 0.000000 488.964379 0.338696 0.000000                 
BAILEY-WASHINGTON_5 1                S01-042          0.889675 0.000000 419.793460 0.110227 0.000000                 
BAILEY-WASHINGTON_6 1                S01-002          12.322251 0.000000 1562.302073 0.143315 0.000000                 
BAILEY-WASHINGTON_7 1                C40-040          9.147660 0.000000 1346.092767 0.052513 0.000000                 
BAILEY-WASHINGTON_8 1                S05-009          5.477377 0.000000 1041.612777 1.286613 0.000000                 
BAUER_MILL_1     1                N03-010          12.083345 0.000000 1294.382383 0.838221 0.000000                 
BAUER_MILL_2     1                N05-030          13.331037 0.000000 1359.568120 1.872770 0.000000                 
BAUER_MILL_3     1                N11-009B         18.278734 0.000000 1591.996285 1.741816 0.000000                 
BAUER_MILL_4     1                N07-019          16.619754 0.000000 1518.033281 2.873771 0.000000                 
BAUER_MILL_5     1                N03-025          21.397830 0.000000 1722.478703 1.032372 0.000000                 
CHICAGO10_1      1                C03-002A         10.783184 0.000000 1116.225345 1.353506 0.000000                 
CHICAGO10_2      1                C16-009          8.123805 0.000000 968.853495 1.718749 0.000000                 
CHICAGO10_3      1                C17-017          7.235543 0.000000 914.353101 0.299551 0.000000                 
CHICAGO10_4      1                C15-016          1.275005 0.000000 383.825951 0.162761 0.000000                 
CHICAGO10_5      1                C07-036A         4.189809 0.000000 695.785693 5.597787 0.000000                 
CHICAGO15_1      1                N21-047          1.666699 0.000000 679.849205 0.310158 0.000000                 
CHICAGO15_2      1                N21-046          0.203203 0.000000 237.382556 1.007944 0.000000                 
CHICAGO15_3      1                N21-054          0.730511 0.000000 450.088088 1.187089 0.000000                 
CHICAGO15_4      1                N22-034          8.673226 0.000000 1550.866177 3.475388 0.000000                 
CHICAGO15_5      1                N22-041          3.270323 0.000000 952.312192 1.991109 0.000000                 
CHICAGO15_6      1                C07-066          4.321425 0.000000 1094.705999 1.938466 0.000000                 
COACH_NORTH_1    1                S30-042          14.787422 0.000000 1600.922250 0.012004 0.000000                 
COACH_NORTH_2    1                S06-001          13.918321 0.000000 1553.164422 0.853484 0.000000                 
COACH_SOUTH_1    1                S33-064          13.916996 0.000000 1793.354390 0.307232 0.000000                 
COACH_SOUTH_2    1                S09-065          10.233757 0.000000 1537.839184 0.564379 0.000000                 
COACH_SOUTH_3    1                S09-078A         3.058271 0.000000 840.681179 1.360861 0.000000                 
COACH_SOUTH_4    1                S30-080C         4.543317 0.000000 1024.660241 0.719476 0.000000                 
COACH_SOUTH_5    1                S09-039          10.365723 0.000000 1547.722801 0.557113 0.000000                 
COACH_SOUTH_6    1                S15-008          5.684915 0.000000 1146.186686 0.355924 0.000000                 
COACH_SOUTH_7    1                S16-069          10.488577 0.000000 1556.867529 0.979180 0.000000                 
COMBO_QQB_QTL_1  1                N20-043          8.479743 0.000000 1084.327154 1.266347 0.000000                 
COMBO_QQB_QTL_2  1                N26-013          6.605025 0.000000 956.987405 1.172495 0.000000                 
COMBO_QQB_QTL_3  1                N27-003A         10.700227 0.000000 1218.051080 0.358215 0.000000                 
COMBO_QQB_QTL_4  1                N10-017          14.916657 0.000000 1438.151854 0.318053 0.000000                 
COMBO_QQB_QTL_5  1                N10-055          6.452610 0.000000 945.881438 1.884313 0.000000                 
COUNTRY_LAKES_1  1                W10-016          6.326176 0.000000 936.568693 0.975480 0.000000                 
COUNTRY_LAKES_2  1                W10-005          14.608268 0.000000 1423.207979 0.217153 0.000000                 
HOBSON_1         1                C19-074          14.866529 0.000000 1716.029599 3.344060 0.000000                 
HOBSON_2         1                C32-001B         19.783380 0.000000 1979.567079 4.255213 0.000000                 
HOBSON_3         1                C34-023          24.159622 0.000000 2187.585556 1.390610 0.000000                 
HOBSON_MILL_1    1                C27-034          17.009851 0.000000 1535.745489 0.138405 0.000000                 
HOBSON_MILL_2    1                C28-059          20.126925 0.000000 1670.543200 0.290062 0.000000                 
HOBSON_MILL_3    1                T06-031B         16.455518 0.000000 1510.514067 0.137816 0.000000                 
HOBSON_MILL_4    1                C11-015          10.359941 0.000000 1198.526492 1.876736 0.000000                 
HOBSON_MILL_5    1                C20-062          7.625735 0.000000 1028.276384 0.606485 0.000000                 
HOBSON_MILL_6    1                C20-008          4.770986 0.000000 813.341789 1.464390 0.000000                 
HOBSON_MILL_7    1                C23-071          17.259957 0.000000 1546.994802 0.608459 0.000000                 
HOBSON_MILL_8    1                C39-031          14.857828 0.000000 1435.313133 0.950033 0.000000                 
MCDOWELL_1       1                W06-062          9.430975 0.000000 1366.778921 0.636657 0.000000                 
MCDOWELL_2       1                W06-017A         5.577708 0.000000 1051.109305 1.230483 0.000000                 
MCDOWELL_3       1                T10-009          9.164116 0.000000 1347.303005 0.077960 0.000000                 
MCDOWELL_4       1                N04-005          0.784961 0.000000 394.315738 0.312073 0.000000                 
NAPERVILLE-PLAINFIELD_1 1                S56-016          0.999349 0.000000 832.362850 0.455802 0.000000                 
NAPERVILLE-PLAINFIELD_10 1                W26-037          0.843313 0.000000 764.624735 0.846882 0.000000                 
NAPERVILLE-PLAINFIELD_11 1                W26-048          0.608701 0.000000 649.615053 0.059088 0.000000                 
NAPERVILLE-PLAINFIELD_12 1                W26-024          1.860424 0.000000 1135.690359 1.163313 0.000000                 
NAPERVILLE-PLAINFIELD_13 1                W14-073          0.986764 0.000000 827.104891 0.546216 0.000000                 
NAPERVILLE-PLAINFIELD_14 1                W13-010          0.784074 0.000000 737.279991 0.116231 0.000000                 
NAPERVILLE-PLAINFIELD_15 1                S62-173          3.602004 0.000000 1580.251079 0.524721 0.000000                 
NAPERVILLE-PLAINFIELD_16 1                S54-018          2.490778 0.000000 1314.079139 0.810011 0.000000                 
NAPERVILLE-PLAINFIELD_17 1                S44-004          2.268678 0.000000 1254.123730 0.295098 0.000000                 
NAPERVILLE-PLAINFIELD_18 1                S40-032          3.731134 0.000000 1608.327357 0.151881 0.000000                 
NAPERVILLE-PLAINFIELD_19 1                S47-029          1.530032 0.000000 1029.921684 0.318023 0.000000                 
NAPERVILLE-PLAINFIELD_2 1                S56-061          0.365272 0.000000 503.224778 0.125192 0.000000                 
NAPERVILLE-PLAINFIELD_20 1                S52-018          0.778520 0.000000 734.664399 0.132875 0.000000                 
NAPERVILLE-PLAINFIELD_21 1                W17-040          0.723884 0.000000 708.416395 2.958104 0.000000                 
NAPERVILLE-PLAINFIELD_22 1                W17-036          0.522726 0.000000 601.992177 0.762245 0.000000                 
NAPERVILLE-PLAINFIELD_23 1                W17-069          1.640876 0.000000 1066.576184 1.670497 0.000000                 
NAPERVILLE-PLAINFIELD_24 1                W15-074          2.680804 0.000000 1363.284520 0.137527 0.000000                 
NAPERVILLE-PLAINFIELD_25 1                W12-074          1.927917 0.000000 1156.107472 1.289483 0.000000                 
NAPERVILLE-PLAINFIELD_26 1                W18-038          0.440600 0.000000 552.682954 0.313624 0.000000                 
NAPERVILLE-PLAINFIELD_27 1                W18-022A         0.494002 0.000000 585.219166 1.329893 0.000000                 
NAPERVILLE-PLAINFIELD_28 1                W18-014          1.920575 0.000000 1153.903993 0.968370 0.000000                 
NAPERVILLE-PLAINFIELD_29 1                W15-072          1.294668 0.000000 947.399646 0.554999 0.000000                 
NAPERVILLE-PLAINFIELD_3 1                S56-062A         0.765034 0.000000 728.273136 0.203973 0.000000                 
NAPERVILLE-PLAINFIELD_30 1                T12-027A         4.766137 0.000000 1817.762959 0.170918 0.000000                 
NAPERVILLE-PLAINFIELD_4 1                S56-047          0.684696 0.000000 688.974210 0.230582 0.000000                 
NAPERVILLE-PLAINFIELD_5 1                S57-060          2.423867 0.000000 1296.308572 0.100783 0.000000                 
NAPERVILLE-PLAINFIELD_6 1                S55-017          1.636034 0.000000 1065.001450 1.014138 0.000000                 
NAPERVILLE-PLAINFIELD_7 1                S55-067          1.275608 0.000000 940.400154 0.528833 0.000000                 
NAPERVILLE-PLAINFIELD_8 1                W11-001          1.430890 0.000000 995.994949 0.276510 0.000000                 
NAPERVILLE-PLAINFIELD_9 1                W12-163          2.359891 0.000000 1279.086780 0.938202 0.000000                 
NCC_1            1                C07-029A         0.762672 0.000000 459.888817 2.232301 0.000000                 
NCC_2            1                C07-011          2.095480 0.000000 762.299784 1.990810 0.000000                 
NCC_3            1                C13-025B         8.673537 0.000000 1550.894000 0.522555 0.000000                 
NORTH_PS_1       1                T04-007          1.371014 0.000000 974.933314 0.399273 0.000000                 
NPS_INT_1        1                C56-073          12.085325 0.000000 1294.488434 0.314856 0.000000                 
NPS_INT_10       1                C56-023A         15.779407 0.000000 1479.157211 0.713770 0.000000                 
NPS_INT_2        1                C58-039          7.206778 0.000000 999.630683 0.539573 0.000000                 
NPS_INT_3        1                C58-040          11.315239 0.000000 1252.566719 0.499008 0.000000                 
NPS_INT_4        1                C08-028          13.819203 0.000000 1384.237162 0.047033 0.000000                 
NPS_INT_5        1                C54-020          3.833002 0.000000 729.018408 0.871740 0.000000                 
NPS_INT_6        1                C01-028          12.041362 0.000000 1292.131756 0.411923 0.000000                 
NPS_INT_7        1                C42-008A         17.446455 0.000000 1555.330176 0.381568 0.000000                 
NPS_INT_8        1                C55-033          22.728858 0.000000 1775.242988 0.788361 0.000000                 
NPS_INT_9        1                T03-023          25.330982 0.000000 1874.109732 0.732076 0.000000                 
NWPS_1           1                N01-057          1.735764 0.000000 1551.366387 0.149138 0.000000                 
NWPS_2           1                N01-049          2.359225 0.000000 1808.646611 0.510320 0.000000                 
NWPS_3           1                N28-057          1.234922 0.000000 1308.545195 0.142626 0.000000                 
NWPS_4           1                N15-003          1.131048 0.000000 1252.303037 0.955217 0.000000                 
NWPS_5           1                N15-109          0.783358 0.000000 1042.195426 0.051899 0.000000                 
NWPS_6           1                T04-017          1.056465 0.000000 1210.309944 0.546155 0.000000                 
NWPS_7           1                N16-064          0.988888 0.000000 1170.961398 0.556435 0.000000                 
NWPS_8           1                N15-163          1.981795 0.000000 1657.670889 0.691104 0.000000                 
PEBBLEWOOD_1     1                W05-047          5.687607 0.000000 1255.881873 0.552929 0.000000                 
PEBBLEWOOD_2     1                W05-024          4.275023 0.000000 1088.812805 0.467396 0.000000                 
PEBBLEWOOD_3     1                W05-015          2.150074 0.000000 772.165987 0.129837 0.000000                 
PEBBLEWOOD_4     1                W08-016          3.948911 0.000000 1046.460149 0.617115 0.000000                 
PEBBLEWOOD_5     1                W03-029A         5.495398 0.000000 1234.478579 1.216604 0.000000                 
PEBBLEWOOD_6     1                W02-023          2.609105 0.000000 850.608535 1.163710 0.000000                 
PEBBLEWOOD_7     1                W02-001          5.187212 0.000000 1199.363977 0.700239 0.000000                 
PRESCOTT_1       1                N02-013A         24.405865 0.000000 2056.700769 0.789072 0.000000                 
PRESCOTT_2       1                N08-038          7.951491 0.000000 1173.946451 0.028401 0.000000                 
PRESCOTT_3       1                N09-081          8.411114 0.000000 1207.398872 0.251881 0.000000                 
PRESCOTT_4       1                N17-010          2.255863 0.000000 625.288370 0.728704 0.000000                 
PRESCOTT_5       1                N18-034C         4.767745 0.000000 909.034839 0.610782 0.000000                 
PRESCOTT_6       1                N18-004          10.387281 0.000000 1341.760330 1.201626 0.000000                 
PRESCOTT_7       1                N14-002          8.672371 0.000000 1226.006954 7.674088 0.000000                 
PRESCOTT_8       1                N13-010          15.598010 0.000000 1644.214997 0.333655 0.000000                 
RIVERVIEW_1      1                C06-089          3.166245 0.000000 698.425377 0.717679 0.000000                 
RIVERVIEW_10     1                T08-008          26.126274 0.000000 2006.256607 0.707695 0.000000                 
RIVERVIEW_2      1                C06-034          1.946437 0.000000 547.605696 0.700308 0.000000                 
RIVERVIEW_3      1                C06-072          1.873342 0.000000 537.225081 1.148651 0.000000                 
RIVERVIEW_4      1                N25-014          4.829831 0.000000 862.608481 0.531106 0.000000                 
RIVERVIEW_5      1                N24-012          7.469847 0.000000 1072.762548 1.587667 0.000000                 
RIVERVIEW_6      1                C02-018B         6.023309 0.000000 963.308322 0.878638 0.000000                 
RIVERVIEW_7      1                C10-008A         0.844918 0.000000 360.790361 0.083887 0.000000                 
RIVERVIEW_8      1                C06-056          5.453688 0.000000 916.627485 1.572378 0.000000                 
RIVERVIEW_9      1                N23-010          8.045455 0.000000 1113.327768 0.533374 0.000000                 
SHERI_1          1                S28-043A         12.134126 0.000000 1674.548073 0.438217 0.000000                 
SHERI_2          1                S23-007          9.485602 0.000000 1480.559344 0.647516 0.000000                 
SHERI_3          1                S12-006          8.432201 0.000000 1395.930643 1.043370 0.000000                 
SHERI_4          1                T02-033          8.186837 0.000000 1375.471056 1.034071 0.000000                 
SHERI_5          1                S31-040          4.413039 0.000000 1009.862578 0.148909 0.000000                 
SHERI_6          1                S29-044          8.642768 0.000000 1413.252667 1.711689 0.000000                 
SHERI_7          1                S29-079          5.507863 0.000000 1128.197044 0.665686 0.000000                 
SOC24_1          1                S26-016          3.607326 0.000000 2236.462807 0.654662 0.000000                 
SOUTH_PS_1       1                S35-032          0.275125 0.000000 617.638560 0.616679 0.000000                 
SOUTH_PS_2       1                S34-014B         0.310059 0.000000 655.679074 0.469881 0.000000                 
SOUTH_PS_3       1                S34-016          0.714718 0.000000 995.488856 0.527099 0.000000                 
SOUTH_PS_4       1                S65-004          0.613755 0.000000 922.500571 1.265007 0.000000                 
SOUTH_PS_5       1                T06-003          0.070098 0.000000 311.761794 0.187253 0.000000                 
SOUTH_PS_6       1                S35-006          3.585683 0.000000 2229.743582 1.104141 0.000000                 
SOUTH_PS_7       1                S17-005          0.648870 0.000000 948.523054 1.323488 0.000000                 
SOUTH_PS_8       1                S15-080          0.644212 0.000000 945.112331 0.511970 0.000000                 
SOUTH_PS_9       1                S34-008A         0.816030 0.000000 1063.707018 0.665946 0.000000                 
SPRINGBROOK_1    1                C59-073          3.796030 0.000000 1026.003498 0.142257 0.000000                 
SPRINGBROOK_10   1                C59-038          0.001000 0.000000 1112.556680 0.033275 0.000000                 
SPRINGBROOK_2    1                C59-004          3.523299 0.000000 988.459162 0.192349 0.000000                 
SPRINGBROOK_3    1                C57-041          7.944128 0.000000 1484.250230 0.509415 0.000000                 
SPRINGBROOK_4    1                S38-047          2.950242 0.000000 904.508868 0.192733 0.000000                 
SPRINGBROOK_5    1                S41-079          1.641779 0.000000 674.747520 0.448520 0.000000                 
SPRINGBROOK_6    1                S41-023          9.484975 0.000000 1621.817872 0.009165 0.000000                 
SPRINGBROOK_7    1                S24-002          8.549630 0.000000 1539.776358 1.272502 0.000000                 
SPRINGBROOK_8    1                T01-008          14.099650 0.000000 1977.370995 1.155843 0.000000                 
SPRINGBROOK_9    1                S22-007          5.580908 0.000000 1244.046016 1.193490 0.000000                 
SPRINGBROOK_COD_1 1                C46-001          5.567370 0.000000 1242.536135 0.486870 0.000000                 
SPRINGBROOK_COD_2 1                C45-061          5.746560 0.000000 1262.373778 1.290887 0.000000                 
SPRINGBROOK_COD_3 1                C45-044          1.654977 0.000000 677.454190 0.143212 0.000000                 
SPRINGBROOK_COD_4 1                C25-036          6.627193 0.000000 1355.653785 0.339327 0.000000                 
SPRINGBROOK_COD_5 1                C27-001          9.025201 0.000000 1582.021698 0.037058 0.000000                 
SPRINGBROOK_COD_6 1                C52-098          2.698812 0.000000 865.107933 1.061086 0.000000                 
SPRINGBROOK_COD_7 1                T01-046          12.661487 0.000000 1873.813469 0.041985 0.000000                 
SPRWWTP_1        1                T02-010          1.213628 0.000000 1297.214417 0.412218 0.000000                 
SPRWWTP_2        1                S43-096          2.705209 0.000000 1936.731518 1.383073 0.000000                 
SWPS_1           1                W24-001          2.915596 0.000000 2010.632289 0.121997 0.000000                 
SWPS_10          1                S50-102          1.699605 0.000000 1535.122250 0.329140 0.000000                 
SWPS_11          1                S45-099          1.294053 0.000000 1339.506895 2.383293 0.000000                 
SWPS_12          1                W19-043          1.195369 0.000000 1287.419308 0.090447 0.000000                 
SWPS_2           1                S63-001A         4.045892 0.000000 2368.515077 0.045069 0.000000                 
SWPS_3           1                S51-089          0.198958 0.000000 525.230648 0.098361 0.000000                 
SWPS_4           1                S51-105          0.304570 0.000000 649.849585 0.378808 0.000000                 
SWPS_5           1                W21-030          0.366441 0.000000 712.805562 0.168036 0.000000                 
SWPS_6           1                W16-020          0.707912 0.000000 990.737287 1.223978 0.000000                 
SWPS_7           1                W21-003          0.724757 0.000000 1002.455874 0.032495 0.000000                 
SWPS_8           1                S48-029          1.186574 0.000000 1282.674187 1.415372 0.000000                 
SWPS_9           1                S50-019          1.025587 0.000000 1192.491551 0.874202 0.000000                 
WARRENVILLE-CANTERA 1                CANTERA          6.780010 0.000000 3066.084936 0.000000 0.000000                 
WARRENVILLE-FERRY 1                T04-032          47.010073 0.000000 4661.265416 1.323401 0.000000                 

[SUBAREAS]
;;Subcatchment   N-Imperv   N-Perv     S-Imperv   S-Perv     PctZero    RouteTo    PctRouted 
;;-------------- ---------- ---------- ---------- ---------- ---------- ---------- ----------
BAILEY-WASHINGTON_1 0.000000   0.000000   0.000000   0.019170   0.000000   OUTLET    
BAILEY-WASHINGTON_2 0.000000   0.000000   0.000000   0.075110   0.000000   OUTLET    
BAILEY-WASHINGTON_3 0.000000   0.000000   0.000000   0.069654   0.000000   OUTLET    
BAILEY-WASHINGTON_4 0.000000   0.000000   0.000000   0.057734   0.000000   OUTLET    
BAILEY-WASHINGTON_5 0.000000   0.000000   0.000000   0.101203   0.000000   OUTLET    
BAILEY-WASHINGTON_6 0.000000   0.000000   0.000000   0.088755   0.000000   OUTLET    
BAILEY-WASHINGTON_7 0.000000   0.000000   0.000000   0.146624   0.000000   OUTLET    
BAILEY-WASHINGTON_8 0.000000   0.000000   0.000000   0.029622   0.000000   OUTLET    
BAUER_MILL_1     0.000000   0.000000   0.000000   0.036699   0.000000   OUTLET    
BAUER_MILL_2     0.000000   0.000000   0.000000   0.024553   0.000000   OUTLET    
BAUER_MILL_3     0.000000   0.000000   0.000000   0.025459   0.000000   OUTLET    
BAUER_MILL_4     0.000000   0.000000   0.000000   0.019820   0.000000   OUTLET    
BAUER_MILL_5     0.000000   0.000000   0.000000   0.033069   0.000000   OUTLET    
CHICAGO10_1      0.000000   0.000000   0.000000   0.028881   0.000000   OUTLET    
CHICAGO10_2      0.000000   0.000000   0.000000   0.025629   0.000000   OUTLET    
CHICAGO10_3      0.000000   0.000000   0.000000   0.061391   0.000000   OUTLET    
CHICAGO10_4      0.000000   0.000000   0.000000   0.083284   0.000000   OUTLET    
CHICAGO10_5      0.000000   0.000000   0.000000   0.014201   0.000000   OUTLET    
CHICAGO15_1      0.000000   0.000000   0.000000   0.060332   0.000000   OUTLET    
CHICAGO15_2      0.000000   0.000000   0.000000   0.033467   0.000000   OUTLET    
CHICAGO15_3      0.000000   0.000000   0.000000   0.030839   0.000000   OUTLET    
CHICAGO15_4      0.000000   0.000000   0.000000   0.018023   0.000000   OUTLET    
CHICAGO15_5      0.000000   0.000000   0.000000   0.023812   0.000000   OUTLET    
CHICAGO15_6      0.000000   0.000000   0.000000   0.024133   0.000000   OUTLET    
COACH_NORTH_1    0.000000   0.000000   0.000000   0.306674   0.000000   OUTLET    
COACH_NORTH_2    0.000000   0.000000   0.000000   0.036370   0.000000   OUTLET    
COACH_SOUTH_1    0.000000   0.000000   0.000000   0.060619   0.000000   OUTLET    
COACH_SOUTH_2    0.000000   0.000000   0.000000   0.044725   0.000000   OUTLET    
COACH_SOUTH_3    0.000000   0.000000   0.000000   0.028803   0.000000   OUTLET    
COACH_SOUTH_4    0.000000   0.000000   0.000000   0.039612   0.000000   OUTLET    
COACH_SOUTH_5    0.000000   0.000000   0.000000   0.045016   0.000000   OUTLET    
COACH_SOUTH_6    0.000000   0.000000   0.000000   0.056320   0.000000   OUTLET    
COACH_SOUTH_7    0.000000   0.000000   0.000000   0.033955   0.000000   OUTLET    
COMBO_QQB_QTL_1  0.000000   0.000000   0.000000   0.029858   0.000000   OUTLET    
COMBO_QQB_QTL_2  0.000000   0.000000   0.000000   0.031030   0.000000   OUTLET    
COMBO_QQB_QTL_3  0.000000   0.000000   0.000000   0.056139   0.000000   OUTLET    
COMBO_QQB_QTL_4  0.000000   0.000000   0.000000   0.059579   0.000000   OUTLET    
COMBO_QQB_QTL_5  0.000000   0.000000   0.000000   0.024477   0.000000   OUTLET    
COUNTRY_LAKES_1  0.000000   0.000000   0.000000   0.034020   0.000000   OUTLET    
COUNTRY_LAKES_2  0.000000   0.000000   0.000000   0.072104   0.000000   OUTLET    
HOBSON_1         0.000000   0.000000   0.000000   0.018374   0.000000   OUTLET    
HOBSON_2         0.000000   0.000000   0.000000   0.016288   0.000000   OUTLET    
HOBSON_3         0.000000   0.000000   0.000000   0.028493   0.000000   OUTLET    
HOBSON_MILL_1    0.000000   0.000000   0.000000   0.090316   0.000000   OUTLET    
HOBSON_MILL_2    0.000000   0.000000   0.000000   0.062387   0.000000   OUTLET    
HOBSON_MILL_3    0.000000   0.000000   0.000000   0.090508   0.000000   OUTLET    
HOBSON_MILL_4    0.000000   0.000000   0.000000   0.024527   0.000000   OUTLET    
HOBSON_MILL_5    0.000000   0.000000   0.000000   0.043145   0.000000   OUTLET    
HOBSON_MILL_6    0.000000   0.000000   0.000000   0.027766   0.000000   OUTLET    
HOBSON_MILL_7    0.000000   0.000000   0.000000   0.043075   0.000000   OUTLET    
HOBSON_MILL_8    0.000000   0.000000   0.000000   0.034472   0.000000   OUTLET    
MCDOWELL_1       0.000000   0.000000   0.000000   0.042110   0.000000   OUTLET    
MCDOWELL_2       0.000000   0.000000   0.000000   0.030290   0.000000   OUTLET    
MCDOWELL_3       0.000000   0.000000   0.000000   0.120338   0.000000   OUTLET    
MCDOWELL_4       0.000000   0.000000   0.000000   0.060147   0.000000   OUTLET    
NAPERVILLE-PLAINFIELD_1 0.000000   0.000000   0.000000   0.049768   0.000000   OUTLET    
NAPERVILLE-PLAINFIELD_10 0.000000   0.000000   0.000000   0.036511   0.000000   OUTLET    
NAPERVILLE-PLAINFIELD_11 0.000000   0.000000   0.000000   0.138226   0.000000   OUTLET    
NAPERVILLE-PLAINFIELD_12 0.000000   0.000000   0.000000   0.031152   0.000000   OUTLET    
NAPERVILLE-PLAINFIELD_13 0.000000   0.000000   0.000000   0.045463   0.000000   OUTLET    
NAPERVILLE-PLAINFIELD_14 0.000000   0.000000   0.000000   0.098555   0.000000   OUTLET    
NAPERVILLE-PLAINFIELD_15 0.000000   0.000000   0.000000   0.046385   0.000000   OUTLET    
NAPERVILLE-PLAINFIELD_16 0.000000   0.000000   0.000000   0.037333   0.000000   OUTLET    
NAPERVILLE-PLAINFIELD_17 0.000000   0.000000   0.000000   0.061852   0.000000   OUTLET    
NAPERVILLE-PLAINFIELD_18 0.000000   0.000000   0.000000   0.086216   0.000000   OUTLET    
NAPERVILLE-PLAINFIELD_19 0.000000   0.000000   0.000000   0.059581   0.000000   OUTLET    
NAPERVILLE-PLAINFIELD_2 0.000000   0.000000   0.000000   0.094962   0.000000   OUTLET    
NAPERVILLE-PLAINFIELD_20 0.000000   0.000000   0.000000   0.092176   0.000000   OUTLET    
NAPERVILLE-PLAINFIELD_21 0.000000   0.000000   0.000000   0.019536   0.000000   OUTLET    
NAPERVILLE-PLAINFIELD_22 0.000000   0.000000   0.000000   0.038485   0.000000   OUTLET    
NAPERVILLE-PLAINFIELD_23 0.000000   0.000000   0.000000   0.025997   0.000000   OUTLET    
NAPERVILLE-PLAINFIELD_24 0.000000   0.000000   0.000000   0.090604   0.000000   OUTLET    
NAPERVILLE-PLAINFIELD_25 0.000000   0.000000   0.000000   0.029589   0.000000   OUTLET    
NAPERVILLE-PLAINFIELD_26 0.000000   0.000000   0.000000   0.059998   0.000000   OUTLET    
NAPERVILLE-PLAINFIELD_27 0.000000   0.000000   0.000000   0.029136   0.000000   OUTLET    
NAPERVILLE-PLAINFIELD_28 0.000000   0.000000   0.000000   0.034144   0.000000   OUTLET    
NAPERVILLE-PLAINFIELD_29 0.000000   0.000000   0.000000   0.045102   0.000000   OUTLET    
NAPERVILLE-PLAINFIELD_3 0.000000   0.000000   0.000000   0.074397   0.000000   OUTLET    
NAPERVILLE-PLAINFIELD_30 0.000000   0.000000   0.000000   0.081273   0.000000   OUTLET    