[TITLE]
;;Project Title/Notes
Scenario Run :  BASE
DNV SWMM 9 Watershed Model.

[OPTIONS]
;;Option             Value
FLOW_UNITS           CMS
INFILTRATION         GREEN_AMPT
FLOW_ROUTING         DYNWAVE
LINK_OFFSETS         DEPTH
MIN_SLOPE            0
ALLOW_PONDING        NO
SKIP_STEADY_STATE    NO

START_DATE           01/03/2001
START_TIME           19:25:00
REPORT_START_DATE    01/03/2001
REPORT_START_TIME    19:25:00
END_DATE             01/05/2001
END_TIME             03:00:00
SWEEP_START          01/01
SWEEP_END            12/31
DRY_DAYS             0.000000
REPORT_STEP          00:05:00
WET_STEP             00:05:00
DRY_STEP             00:05:00
ROUTING_STEP         0:00:05 

INERTIAL_DAMPING     PARTIAL
NORMAL_FLOW_LIMITED  BOTH
FORCE_MAIN_EQUATION  D-W
VARIABLE_STEP        0.75
LENGTHENING_STEP     0
MIN_SURFAREA         1.14
MAX_TRIALS           8
HEAD_TOLERANCE       0.001500
SYS_FLOW_TOL         5
LAT_FLOW_TOL         5
MINIMUM_STEP         0.500000
THREADS              1

[FILES]
;;Interfacing Files
SAVE OUTFLOWS "D:\2017\My2016\SEYMOUR_EXIST_10YR_20161003B.ISDB\DS.txt"

[EVAPORATION]
;;Data Source    Parameters
;;-------------- ----------------
CONSTANT         0.000000
DRY_ONLY         NO

[RAINGAGES]
;;Name           Format    Interval SCF      Source    
;;-------------- --------- ------ ------ ----------
RG_DN64          VOLUME    0.083333 1.000000 FILE       "D:\2017\My2016\SEYMOUR_EXIST_10YR_20161003B.ISDB\JAN01_DN64scale_10yr.dat" JAN01_DN64SCALE_10YR MM   
RG_VN52          VOLUME    0.083333 1.000000 FILE       "D:\2017\My2016\SEYMOUR_EXIST_10YR_20161003B.ISDB\JAN01_VN52scale_10yr.dat" JAN01_VN52SCALE_10YR MM   

[SUBCATCHMENTS]
;;Name           Rain Gage        Outlet           Area     %Imperv  Width    %Slope   CurbLen  SnowPack        
;;-------------- ---------------- ---------------- -------- -------- -------- -------- -------- ----------------
1-2670-107--4755 RG_DN64          DUMMH6106        0.027099 7.500000 18.222000 4.302000 0.000000                 
1-2670-108--9901 RG_DN64          DUMMH00585       0.035418 28.600000 23.148000 4.252000 0.000000                 
1-2670-B--4541   RG_DN64          STMMH04742       0.008033 95.500000 8.901000 1.506000 0.000000                 
1-2670-B--9933   RG_DN64          STMMH04742       0.018649 100.000000 18.385000 2.200000 0.000000                 
1-2875-14--9897  RG_DN64          DUMMH00596       0.042884 31.300000 26.915000 7.348000 0.000000                 
1-2875-21--9894  RG_DN64          STMMH04740       0.030747 46.800000 20.507000 4.704000 0.000000                 
1-2875-22--9907  RG_DN64          STMMH04740       0.026545 67.600000 20.318000 5.955000 0.000000                 
1-2875-23--9908  RG_DN64          STMMH04740       0.051988 50.600000 29.417000 4.185000 0.000000                 
1-5423-2AM--4688 RG_DN64          DUMMH5769        0.222492 0.000000 73.284000 7.947000 0.000000                 
1-5423-3--4486   RG_DN64          DUMMH5769        0.281314 4.600000 77.258000 17.099000 0.000000                 
1-5423-4--4687   RG_DN64          DUMMH5789        0.306547 19.600000 64.556000 13.004000 0.000000                 
1-5423-5--4465   RG_DN64          DUMMH5788        0.301272 28.000000 60.484000 5.429000 0.000000                 
1-5423-6--4685   RG_DN64          DUMMH03036       0.376758 7.600000 75.863000 6.451000 0.000000                 
1-5423-7--4478   RG_DN64          DUMMH03036       0.426510 31.600000 73.863000 5.772000 0.000000                 
1-5423-8--4444   RG_DN64          DUMMH03036       0.309401 23.300000 47.232000 4.609000 0.000000                 
1-5423-A--4464   RG_DN64          DUMMH5788        0.018521 0.000000 12.348000 10.564000 0.000000                 
1-6477-A--4473   RG_DN64          DUMMH00596       0.297080 16.600000 68.390000 9.187000 0.000000                 
1-6477-B--4472   RG_DN64          STMMH04738       0.299036 22.200000 76.337000 5.482000 0.000000                 
1-6477-C--4451   RG_DN64          STMMH04740       0.300680 26.000000 64.480000 7.014000 0.000000                 
1-6477-D--4463   RG_DN64          DUMMH03036       0.304071 9.800000 67.420000 6.901000 0.000000                 
1-6889-A--4471   RG_DN64          DUMMH03036       0.246206 21.700000 46.850000 6.663000 0.000000                 
1-6889-B--4524   RG_DN64          DUMMH03036       0.250645 22.100000 45.851000 5.864000 0.000000                 
1-8972-1--9779   RG_DN64          STMMH04276       0.087703 30.000000 47.716000 6.564000 0.000000                 
1-8972-10--19746 RG_DN64          STMMH04270       0.070095 29.500000 36.515000 12.185000 0.000000                 
1-8972-11--9742  RG_DN64          STMMH04266       0.070816 38.900000 36.770000 7.878000 0.000000                 
1-8972-12--9774  RG_DN64          STMMH04269       0.069979 48.300000 36.564000 7.401000 0.000000                 
1-8972-13--9773  RG_DN64          STMMH04269       0.072183 34.900000 33.815000 5.890000 0.000000                 
1-8972-2--9778   RG_DN64          STMMH04276       0.068980 19.700000 37.154000 6.430000 0.000000                 
1-8972-3--19750  RG_DN64          STMMH04276       0.070793 18.700000 37.770000 6.228000 0.000000                 
1-8972-4--9781   RG_DN64          STMMH04277       0.070941 12.000000 37.761000 7.441000 0.000000                 
1-8972-5--9777   RG_DN64          STMMH04277       0.071570 13.900000 37.882000 6.192000 0.000000                 
1-8972-6--9776   RG_DN64          STMMH04278       0.083507 19.800000 38.317000 7.152000 0.000000                 
1-8972-7--9780   RG_DN64          STMMH04278       0.072571 27.500000 37.824000 6.875000 0.000000                 
1-8972-8--9775   RG_DN64          STMMH04270       0.070085 30.200000 36.024000 8.187000 0.000000                 
1-8972-9--9734   RG_DN64          STMMH04270       0.070084 45.300000 36.449000 9.450000 0.000000                 
1-9336-7--9917   RG_DN64          STMMH05117       0.012295 100.000000 14.849000 1.523000 0.000000                 
1-9344-6--9923   RG_DN64          STMMH05117       0.023642 100.000000 15.898000 1.859000 0.000000                 
1-BCP12607-A--4684 RG_DN64          DUMMH00583       0.109906 65.500000 44.793000 4.126000 0.000000                 
1-T-642--4237    RG_VN52          STMMH02107       0.527673 0.000000 92.353000 11.804000 0.000000                 
10-3570--4160    RG_DN64          DUMMH00578       0.023894 34.600000 20.753000 9.333000 0.000000                 
10072-B--9887    RG_DN64          DUMMH00581       0.063213 42.500000 30.790000 5.436000 0.000000                 
10072-C--9892    RG_DN64          STMMH05124       0.065622 23.200000 31.862000 4.751000 0.000000                 
10087-BL--4349   RG_VN52          STMMH00014       0.052974 84.600000 30.245000 6.973000 0.000000                 
10087-BL--4350   RG_VN52          STMMH00014       0.025389 50.800000 20.802000 13.133000 0.000000                 
10283-1--19429   RG_DN64          STMMH04712       0.104361 46.200000 43.816000 29.433000 0.000000                 
10283-2--19453   RG_DN64          DUMMH00629       0.102261 39.900000 44.561000 29.073000 0.000000                 
10364-10--9821   RG_DN64          STMMH04705       0.083730 35.300000 41.734000 5.644000 0.000000                 
10364-11--9949   RG_DN64          STMMH04704       0.078625 14.800000 36.577000 6.250000 0.000000                 
10364-3--4526    RG_DN64          STMMH04705       0.084626 31.200000 37.140000 10.872000 0.000000                 
10364-4--9825    RG_DN64          STMMH04705       0.098906 54.700000 41.062000 7.552000 0.000000                 
10364-5--9824    RG_DN64          STMMH04705       0.113796 31.900000 43.039000 5.373000 0.000000                 
10364-7--19753   RG_DN64          STMMH04704       0.086013 47.500000 40.482000 8.795000 0.000000                 
10364-8--19754   RG_DN64          STMMH04704       0.038810 43.800000 27.914000 6.283000 0.000000                 
10364-8--9823    RG_DN64          STMMH04704       0.038093 30.900000 27.556000 5.393000 0.000000                 
10781-11--4014   RG_VN52          DUMMH00557       0.041503 46.500000 27.767000 9.418000 0.000000                 
11-1472-1--19565 RG_VN52          DUMMH6645        0.009508 0.000000 13.065000 10.125000 0.000000                 
11-1472-1RD--9550 RG_VN52          DUMMH6645        0.059824 58.300000 36.536000 44.657000 0.000000                 
11-1472-2--9553  RG_VN52          DUMMH6645        0.052382 99.900000 30.782000 39.452000 0.000000                 
11-1472-3--4227  RG_VN52          DUMMH6646        0.057124 80.700000 29.943000 36.627000 0.000000                 
11-1472-4--4200  RG_VN52          DUMMH6646        0.058023 23.600000 30.019000 22.221000 0.000000                 
11-16017-2--9787 RG_DN64          STMMH04724       0.733648 3.800000 137.719000 24.509000 0.000000                 
11-3881-1--19606 RG_VN52          STMMH07292       0.035311 44.100000 18.811000 3.446000 0.000000                 
11-3881-13--19543 RG_VN52          STMMH07292       0.037109 55.700000 19.622000 7.544000 0.000000                 
11-3881-14--9540 RG_VN52          STMMH07292       0.036321 52.100000 19.229000 5.507000 0.000000                 
11-3881-2--19588 RG_VN52          STMMH07292       0.036835 72.300000 19.550000 4.090000 0.000000                 
11-3881-3--21231 RG_VN52          STMMH02077       0.035029 86.000000 18.653000 4.627000 0.000000                 
11-3881-4--19475 RG_VN52          STMMH02077       0.037276 54.000000 19.913000 5.294000 0.000000                 
11-3881-5AM--19576 RG_VN52          STMMH07291       0.053900 59.100000 27.480000 5.037000 0.000000                 
11-3881-7--9542  RG_VN52          STMMH07291       0.053772 83.400000 29.326000 4.180000 0.000000                 
11-3881-8--9546  RG_VN52          STMMH07291       0.035962 73.100000 19.100000 3.940000 0.000000                 
11-3881-A--19575 RG_VN52          STMMH02076       0.072053 35.200000 35.422000 4.424000 0.000000                 
11-5311-3--4188  RG_DN64          STMMH05023       0.303017 7.700000 88.407000 6.052000 0.000000                 
11-5311-A--4175  RG_DN64          STMMH05023       0.127410 36.600000 54.838000 11.511000 0.000000                 
11-5311-A--4187  RG_DN64          DUMMH00609       0.112359 12.100000 52.596000 7.673000 0.000000                 
11104-10--9911   RG_DN64          STMMH04736       0.085607 55.900000 42.898000 6.173000 0.000000                 
11104-11--9909   RG_DN64          STMMH04736       0.083272 36.600000 37.970000 5.401000 0.000000                 
11104-12--9910   RG_DN64          STMMH04737       0.074816 31.900000 34.993000 7.701000 0.000000                 
11104-13--9931   RG_DN64          STMMH04737       0.105983 13.800000 44.051000 6.804000 0.000000                 
11104-14--9895   RG_DN64          STMMH04737       0.214259 6.500000 66.956000 7.524000 0.000000                 
11104-15--4509   RG_DN64          DUMMH6107        0.895105 0.000000 144.573000 10.374000 0.000000                 
11104-17--19412  RG_DN64          DUMMH00606       0.149802 23.600000 51.682000 26.652000 0.000000                 
11104-18--19421  RG_DN64          DUMMH00606       0.117260 47.200000 42.213000 22.716000 0.000000                 
11104-19--19420  RG_DN64          DUMMH00606       0.111800 45.900000 40.476000 14.238000 0.000000                 
11104-2--4516    RG_DN64          DUMMH6850        0.072692 46.900000 34.357000 6.171000 0.000000                 
11104-20--4531   RG_DN64          STMMH04701       0.079846 0.000000 35.640000 10.078000 0.000000                 
11104-21--4530   RG_DN64          STMMH04701       0.106816 0.000000 42.178000 9.622000 0.000000                 
11104-22--4515   RG_DN64          DUMMH5983        8.144943 0.100000 504.661000 15.646000 0.000000                 
11104-3--4532    RG_DN64          DUMMH6698        0.073307 19.700000 34.926000 10.391000 0.000000                 
11104-4--4544    RG_DN64          DUMMH6698        0.074485 11.600000 34.936000 11.250000 0.000000                 
11104-5--4545    RG_DN64          STMMH04734       0.152948 0.000000 55.370000 9.176000 0.000000                 
11104-6--4546    RG_DN64          STMMH04734       0.091446 21.100000 40.737000 5.351000 0.000000                 
11104-7--4522    RG_DN64          DUMMH00608       0.090754 42.000000 43.191000 4.821000 0.000000                 
11104-9--4514    RG_DN64          STMMH04736       0.083900 66.300000 45.517000 4.284000 0.000000                 
11118-A--3989    RG_VN52          STMMH05286       3.662955 76.300000 282.897000 7.366000 0.000000                 
11118-A--4031    RG_VN52          STMMH05286       0.243718 97.300000 67.386000 3.611000 0.000000                 
11208-A--4669    RG_DN64          STMMH04266       0.107375 8.500000 43.172000 28.810000 0.000000                 
11208-B--4481    RG_DN64          STMMH04266       0.094194 12.400000 38.104000 38.964000 0.000000                 
11208-C--4750    RG_DN64          STMMH04270       0.098137 16.700000 38.839000 34.633000 0.000000                 
11208-D--4477    RG_DN64          STMMH04267       0.141002 16.500000 52.363000 38.466000 0.000000                 
11208-E--4542    RG_DN64          STMMH04267       0.090940 21.500000 37.582000 56.930000 0.000000                 
11262-15--19444  RG_DN64          STMMH04701       0.093683 1.000000 45.551000 11.400000 0.000000                 
11262-16--19445  RG_DN64          STMMH07543       0.092493 17.000000 34.834000 8.838000 0.000000                 
11419-1--21046   RG_DN64          STMMH04713       0.073712 0.000000 32.376000 34.577000 0.000000                 
11419-2--9466    RG_DN64          STMMH04713       0.456422 0.600000 106.036000 42.650000 0.000000                 
11419-3--19392   RG_DN64          STMMH05151       5.837215 0.100000 398.769000 23.835000 0.000000                 
11419-4--9467    RG_DN64          STMMH04715       0.095093 22.200000 39.844000 5.551000 0.000000                 
11419-5--19443   RG_DN64          STMMH07543       0.106904 25.900000 49.691000 5.131000 0.000000                 
11633-5--9916    RG_DN64          STMMH05122       2.286900 55.700000 235.058000 6.981000 0.000000                 
11707-B--9889    RG_DN64          STMMH05124       0.055636 0.000000 27.350000 4.868000 0.000000                 
11775-1--4172    RG_DN64          DUMMH00609       0.148414 3.500000 56.330000 7.890000 0.000000                 
11853-1--19415   RG_DN64          DUMMH00594       0.082611 44.300000 39.752000 10.039000 0.000000                 
11899-3--19550   RG_VN52          STMMH07290       0.055330 99.900000 30.149000 3.246000 0.000000                 
11976-1--4259    RG_VN52          STMMH01976       0.479027 92.100000 102.851000 4.107000 0.000000                 
11996-Y--4018    RG_DN64          OF_HARBOUR_12    5.149006 5.400000 235.277000 8.844000 0.000000                 
12-2536-27--19700 RG_DN64          DUMMH02062       0.035213 0.000000 19.461000 22.510000 0.000000                 
12-2536-28--19699 RG_DN64          DUMMH02062       0.034888 0.000000 19.309000 14.236000 0.000000                 
12-2536-29--19698 RG_DN64          STMMH04312       0.035490 0.000000 19.680000 13.527000 0.000000                 
12-2536-53--19717 RG_DN64          STMMH04310       0.036094 0.000000 19.844000 25.709000 0.000000                 
12-2536-54--19718 RG_DN64          STMMH04310       0.033498 0.000000 18.593000 28.401000 0.000000                 
12-2536-55--19735 RG_DN64          STMMH04310       0.035065 0.000000 19.253000 30.200000 0.000000                 
12-2536-56--19710 RG_DN64          STMMH04310       0.034884 0.000000 19.154000 38.590000 0.000000                 
12-2536-57--19720 RG_DN64          STMMH04310       0.037227 0.000000 20.353000 52.077000 0.000000                 
12-2536-58--19721 RG_DN64          STMMH04310       0.034676 0.000000 19.069000 59.545000 0.000000                 
12-2536-59--19728 RG_DN64          STMMH07334       0.035830 0.000000 19.661000 59.946000 0.000000                 
12-2536-60--19729 RG_DN64          STMMH07334       0.034314 0.000000 18.878000 59.467000 0.000000                 
12-2536-61--9846 RG_DN64          STMMH07334       0.036547 0.000000 20.015000 59.670000 0.000000                 
12-2536-62--19727 RG_DN64          STMMH07334       0.034992 0.000000 19.232000 51.497000 0.000000                 
12-2536-63--19822 RG_DN64          STMMH07334       0.034987 0.000000 19.236000 47.250000 0.000000                 
12-2536-64--19716 RG_DN64          STMMH07334       0.035123 0.000000 19.308000 42.870000 0.000000                 
12-2536-65--9853 RG_DN64          STMMH07334       0.035792 0.000000 19.654000 40.436000 0.000000                 
12-2536-66--19709 RG_DN64          STMMH07334       0.034641 0.000000 19.073000 43.016000 0.000000                 
12-2536-67--9859 RG_DN64          STMMH07334       0.036188 0.000000 19.828000 50.315000 0.000000                 
12-2536-68--19719 RG_DN64          STMMH07334       0.032290 0.000000 17.930000 55.061000 0.000000                 
12-2536-69--19834 RG_DN64          STMMH07334       0.036924 0.000000 20.407000 55.800000 0.000000                 
12-2536-70--19688 RG_DN64          STMMH07334       0.033662 0.000000 18.743000 59.172000 0.000000                 
12-2536-70A--19833 RG_DN64          STMMH04308       0.035497 0.000000 19.700000 56.878000 0.000000                 
12-2536-71--9797 RG_DN64          STMMH04311       0.036921 0.000000 20.325000 49.731000 0.000000                 
12-2536-71A--19704 RG_DN64          STMMH04311       0.034175 0.000000 19.038000 52.805000 0.000000                 
12-2536-72--19724 RG_DN64          STMMH04311       0.034428 0.000000 19.020000 33.101000 0.000000                 
12-2536-73--19723 RG_DN64          STMMH04311       0.033970 0.000000 18.772000 29.173000 0.000000                 
12-2536-74--19714 RG_DN64          STMMH04311       0.035206 0.000000 19.508000 32.049000 0.000000                 
12-2536-75--21253 RG_DN64          STMMH04312       0.034612 0.000000 19.129000 28.452000 0.000000                 
12-2536-76--19722 RG_DN64          DUMMH02062       0.034834 0.000000 19.296000 25.976000 0.000000                 
12-2536-77--21252 RG_DN64          DUMMH02062       0.035567 0.000000 19.625000 30.846000 0.000000                 
12-2536-78--19697 RG_DN64          DUMMH02062       0.035516 0.000000 19.586000 37.538000 0.000000                 
12-9701-1--19692 RG_DN64          STMMH04311       0.089710 38.500000 43.310000 5.621000 0.000000                 
12-9701-2--9789  RG_DN64          STMMH04311       0.090860 86.400000 45.063000 4.424000 0.000000                 
12-9701-3--9830  RG_DN64          STMMH04312       0.084737 42.400000 44.047000 7.500000 0.000000                 
12218-B--4697    RG_VN52          STMMH07551       0.194534 19.500000 63.746000 12.836000 0.000000                 
12247-A--9812    RG_DN64          STMMH04294       0.075733 6.300000 35.603000 49.640000 0.000000                 
12345-A--4192    RG_DN64          DUMMH00603       0.114441 32.800000 46.465000 7.677000 0.000000                 
12345-B--4107    RG_DN64          STMMH05014       0.114263 32.000000 47.975000 8.724000 0.000000                 
12345-C--4190    RG_DN64          STMMH05017       0.114063 38.800000 46.605000 12.231000 0.000000                 
12494-37R--21300 RG_DN64          STMMH04285       1.425952 0.100000 128.718000 58.869000 0.000000                 
12494-40--14768  RG_DN64          STMMH04310       0.515134 0.000000 84.177000 51.843000 0.000000                 
12494-47--19713  RG_DN64          STMMH04310       0.081825 0.000000 36.284000 66.233000 0.000000                 
12494-R46--14767 RG_DN64          STMMH04310       1.707003 0.100000 207.261000 53.683000 0.000000                 
12507-A--9474    RG_DN64          DUMMH00589       1.297540 61.800000 178.536000 6.668000 0.000000                 
12608-1--9816    RG_DN64          DUMMH6293        5.585367 1.800000 414.970000 29.188000 0.000000                 
12608-2--9817    RG_DN64          STMMH04734       0.816528 0.000000 128.110000 10.110000 0.000000                 
12608-3--4455    RG_DN64          DUMMH6850        0.076841 22.500000 36.109000 25.324000 0.000000                 
12694-D--4529    RG_DN64          STMMH04706       0.083550 35.400000 37.047000 14.547000 0.000000                 
12804--4528      RG_DN64          STMMH04706       0.086098 18.900000 38.599000 38.713000 0.000000                 
12804-F--9820    RG_DN64          STMMH04705       0.090959 40.700000 41.316000 6.422000 0.000000                 
12804-H--4527    RG_DN64          STMMH04706       0.183282 12.900000 64.647000 43.660000 0.000000                 
12804-I--19752   RG_DN64          STMMH04706       0.120786 26.300000 49.420000 6.227000 0.000000                 
12804-J--19760   RG_DN64          STMMH04706       0.113433 22.500000 47.905000 11.496000 0.000000                 
12804-K--9818    RG_DN64          STMMH04706       0.085082 48.000000 38.647000 8.144000 0.000000                 
12814-D--19756   RG_DN64          DUMMH6293        0.109827 50.000000 48.336000 16.668000 0.000000                 
12814-E--9952    RG_DN64          DUMMH6293        0.116422 19.400000 50.605000 16.236000 0.000000                 
12814-F--9951    RG_DN64          DUMMH6293        0.250578 4.600000 81.370000 20.673000 0.000000                 
12847-F--4765    RG_DN64          STMMH04267       0.083922 3.700000 36.416000 60.438000 0.000000                 
12847-H--4758    RG_DN64          STMMH04288       0.153466 0.000000 52.598000 77.425000 0.000000                 
12847-PK--4476   RG_DN64          STMMH04289       0.177847 0.000000 63.107000 68.527000 0.000000                 
12955-A--9725    RG_DN64          STMMH04300       0.078317 25.200000 36.494000 5.010000 0.000000                 
12983-J--4766    RG_DN64          DUMMH6256        0.113127 2.500000 50.340000 53.228000 0.000000                 
12983-K--4490    RG_DN64          DUMMH02057       0.070366 12.300000 36.260000 41.937000 0.000000                 
13-2536-30--19689 RG_DN64          STMMH04312       0.034097 1.800000 18.880000 17.762000 0.000000                 
13-2536-31--9800 RG_DN64          STMMH04311       0.035184 4.600000 19.424000 24.537000 0.000000                 
13-2536-32--19696 RG_DN64          STMMH04311       0.033877 2.100000 18.810000 31.593000 0.000000                 
13-2536-33--19733 RG_DN64          STMMH04311       0.034749 0.000000 19.179000 31.768000 0.000000                 
13-2536-34--19693 RG_DN64          STMMH04311       0.035999 0.000000 19.784000 29.174000 0.000000                 
13077-A--9869    RG_DN64          STMMH04294       0.105046 1.200000 44.997000 56.097000 0.000000                 
13077-B--9813    RG_DN64          STMMH04296       0.075100 34.500000 35.444000 23.635000 0.000000                 
13077-C--9811    RG_DN64          STMMH04294       0.794402 3.300000 127.685000 61.521000 0.000000                 
13091-A--19478   RG_VN52          STMMH03143       0.419340 56.800000 84.816000 15.120000 0.000000                 
13091-A--19486   RG_VN52          STMMH03142       0.481597 57.400000 108.195000 8.435000 0.000000                 
13091-A--19491   RG_VN52          STMMH03261       0.426278 35.200000 111.701000 22.683000 0.000000                 
13091-A--9594    RG_VN52          STMMH03242       0.799261 48.800000 131.122000 17.180000 0.000000                 
13091-A--9704    RG_VN52          STMMH02093       0.858816 53.500000 128.030000 13.978000 0.000000                 
13153-1--21274   RG_DN64          STMMH07334       0.067869 50.000000 32.391000 11.969000 0.000000                 
13153-2--14766   RG_DN64          STMMH07334       0.067524 32.900000 34.962000 8.489000 0.000000                 
13164-H--19758   RG_DN64          DUMMH00630       0.077746 39.100000 33.512000 10.027000 0.000000                 
13164-I--19765   RG_DN64          DUMMH00630       0.083726 39.600000 39.884000 10.762000 0.000000                 
13164-J--19751   RG_DN64          DUMMH00630       0.110187 22.000000 52.180000 6.186000 0.000000                 
13209-C--4715    RG_DN64          STMMH04304       0.061863 57.300000 30.873000 7.780000 0.000000                 
13209-D--4717    RG_DN64          STMMH04306       0.060272 44.900000 30.776000 6.827000 0.000000                 
13209-E--4729    RG_DN64          STMMH04306       0.062900 41.500000 31.058000 11.316000 0.000000                 
13335-A--4262    RG_VN52          STMMH01977       0.313894 99.600000 86.416000 4.149000 0.000000                 
13359-G--4547    RG_DN64          STMMH04736       0.057803 30.400000 26.448000 13.337000 0.000000                 
13359-H--4665    RG_DN64          STMMH04736       0.054566 69.200000 25.090000 12.479000 0.000000                 
13359-I--4508    RG_DN64          STMMH04736       0.049158 52.900000 23.757000 12.127000 0.000000                 
13481-E--19623   RG_VN52          STMMH02018       0.073948 65.700000 34.146000 3.836000 0.000000                 
13481-F--19613   RG_VN52          STMMH02018       0.076079 48.800000 34.330000 7.649000 0.000000                 
13803-A--4773    RG_DN64          STMMH04265       0.122426 44.600000 43.995000 7.868000 0.000000                 
13803-B--9717    RG_DN64          STMMH04275       0.077909 39.100000 37.283000 9.709000 0.000000                 
13803-C--9716    RG_DN64          STMMH04275       0.078046 32.900000 39.817000 8.210000 0.000000                 
13832-A--4521    RG_DN64          DUMMH00608       0.092231 23.700000 44.512000 4.946000 0.000000                 
13832-B--4543    RG_DN64          STMMH04736       0.074611 59.300000 39.767000 3.549000 0.000000                 
13862-I--4110    RG_DN64          DUMMH00607       0.098270 31.100000 47.381000 4.679000 0.000000                 
13914-A--9841    RG_DN64          STMMH04297       0.066510 41.300000 32.498000 4.369000 0.000000                 
13914-B--9838    RG_DN64          STMMH04297       0.067009 36.500000 32.148000 10.126000 0.000000                 
1394-C--9891     RG_DN64          STMMH05122       0.082691 82.900000 28.420000 3.310000 0.000000                 
13950-1--4007    RG_VN52          STMMH04235       1.930719 94.800000 224.746000 5.054000 0.000000                 
13972-I--4762    RG_DN64          DUMMH6405        0.087810 2.100000 43.215000 72.716000 0.000000                 
13972-J--4764    RG_DN64          DUMMH6821        0.094602 13.200000 43.778000 66.807000 0.000000                 
14-2536-10--9807 RG_DN64          STMMH07334       0.035682 60.100000 18.809000 25.624000 0.000000                 
14-2536-11--19732 RG_DN64          STMMH07334       0.037066 63.800000 19.626000 12.920000 0.000000                 
14-2536-12--19691 RG_DN64          STMMH07334       0.037390 13.600000 19.861000 12.853000 0.000000                 
14-2536-18--19763 RG_DN64          STMMH04308       0.034013 49.500000 18.679000 17.827000 0.000000                 
14-2536-9--9851  RG_DN64          STMMH07334       0.037536 57.000000 19.661000 20.472000 0.000000                 
14-2536-C--19820 RG_DN64          DUMMH02061       0.076544 29.900000 36.352000 6.245000 0.000000                 
14-2536-E--19731 RG_DN64          STMMH04308       0.072456 17.700000 35.886000 14.485000 0.000000                 
14-2536-F--19690 RG_DN64          STMMH04308       0.107323 40.900000 49.832000 11.959000 0.000000                 
14-2536-G--9810  RG_DN64          DUMMH02061       0.077118 33.700000 36.731000 7.375000 0.000000                 
14-2536-H--19736 RG_DN64          STMMH07334       0.075240 46.900000 36.239000 11.662000 0.000000                 
14-2536-I--19715 RG_DN64          STMMH04308       0.068954 34.900000 35.718000 19.510000 0.000000                 
14-2536-J--9843  RG_DN64          STMMH04308       0.070313 38.200000 36.353000 21.482000 0.000000                 
14047-1--4469    RG_DN64          DUMMH02420       0.138655 29.500000 55.686000 28.592000 0.000000                 
14068-A--4436    RG_DN64          STMMH03318       0.729193 56.000000 119.603000 7.515000 0.000000                 
14076-36--4772   RG_DN64          STMMH04319       0.079437 18.000000 36.129000 11.705000 0.000000                 
14076-37--4560   RG_DN64          STMMH04319       0.072314 13.900000 33.410000 11.580000 0.000000                 
14076-38--4480   RG_DN64          STMMH04318       0.071533 28.100000 33.228000 11.527000 0.000000                 
14076-39--4474   RG_DN64          STMMH04318       0.072029 37.800000 38.777000 13.387000 0.000000                 
14076-40--4776   RG_DN64          STMMH04314       0.083891 48.600000 39.579000 13.229000 0.000000                 
14076-41--4788   RG_DN64          STMMH04314       0.071456 49.700000 33.887000 9.565000 0.000000                 
14076-42--4789   RG_DN64          STMMH04314       0.072153 77.300000 34.175000 3.502000 0.000000                 
14076-43--9849   RG_DN64          STMMH04315       0.078237 43.400000 38.369000 10.013000 0.000000                 
14076-44--19678  RG_DN64          STMMH04315       0.090014 38.900000 44.619000 8.213000 0.000000                 
14076-45--4792   RG_DN64          STMMH04315       0.081402 41.700000 41.474000 8.847000 0.000000                 
14076-46--4791   RG_DN64          STMMH04316       0.079063 54.700000 40.477000 7.048000 0.000000                 
14076-47--4790   RG_DN64          STMMH04316       0.084830 38.400000 44.395000 19.231000 0.000000                 
14076-48--4777   RG_DN64          DUMMH02064       0.092917 21.200000 48.901000 26.678000 0.000000                 