[TITLE]
;;Project Title/Notes

[OPTIONS]
;;Option             Value
FLOW_UNITS           MGD
INFILTRATION         HORTON
FLOW_ROUTING         DYNWAVE
LINK_OFFSETS         DEPTH
MIN_SLOPE            0
ALLOW_PONDING        YES
SKIP_STEADY_STATE    NO

START_DATE           12/15/2018
START_TIME           00:00:00
REPORT_START_DATE    12/15/2018
REPORT_START_TIME    00:00:00
END_DATE             12/16/2018
END_TIME             00:00:00
SWEEP_START          01/01
SWEEP_END            12/31
DRY_DAYS             0
REPORT_STEP          00:15:00
WET_STEP             00:05:00
DRY_STEP             01:00:00
ROUTING_STEP         0:00:30 

INERTIAL_DAMPING     PARTIAL
NORMAL_FLOW_LIMITED  BOTH
FORCE_MAIN_EQUATION  H-W
VARIABLE_STEP        0.75
LENGTHENING_STEP     0
MIN_SURFAREA         12.557
MAX_TRIALS           8
HEAD_TOLERANCE       0.005
SYS_FLOW_TOL         5
LAT_FLOW_TOL         5
MINIMUM_STEP         0
THREADS              1

[EVAPORATION]
;;Data Source    Parameters
;;-------------- ----------------
CONSTANT         0.0
DRY_ONLY         NO

[RAINGAGES]
;;Name           Format    Interval SCF      Source    
;;-------------- --------- ------ ------ ----------
1                INTENSITY 1:00     1.0      TIMESERIES MyStorm         

[SUBCATCHMENTS]
;;Name           Rain Gage        Outlet           Area     %Imperv  Width    %Slope   CurbLen  SnowPack        
;;-------------- ---------------- ---------------- -------- -------- -------- -------- -------- ----------------
; Name Raingage Outlet Area %Imperv Width Slope Clength
CM-1             1                MH1-19.3         1.047480 0.000000 120.515195 0.000000 0.000000                 
CM-10            1                MH1-43.1         0.713393 0.000000 99.456574 0.181963 0.000000                 
CM-100           1                MH1-33.3         0.753177 0.000000 102.192161 0.248880 0.000000                 
CM-1000          1                MH-643           2.247176 0.000000 176.517422 0.026838 0.000000                 
CM-1001          1                MH-514           0.371152 0.000000 71.737307 0.611270 0.000000                 
CM-1002          1                MH-718           3.587476 0.000000 223.030109 0.254789 0.000000                 
CM-1003          1                MH-225           0.972607 0.000000 116.128187 0.395420 0.000000                 
CM-1004          1                MH-736           0.509037 0.000000 84.012462 0.084000 0.000000                 
CM-1005          1                MH-626           2.949450 0.000000 202.227171 0.019000 0.000000                 
CM-1006          1                MH-529           1.707992 0.000000 153.890555 0.142000 0.000000                 
CM-1007          1                MH-640           0.104773 0.000000 38.114746 0.430147 0.000000                 
CM-1008          1                MH-716           0.477408 0.000000 81.360510 0.508978 0.000000                 
CM-1009          1                MH-496           0.962475 0.000000 115.521769 0.117409 0.000000                 
CM-101           1                MH1-32.1         0.753177 0.000000 102.192161 0.000000 0.000000                 
CM-1010          1                MH-535           0.375847 0.000000 72.189612 0.000000 0.000000                 
CM-1011          1                MH-704           0.031877 0.000000 21.023497 0.570000 0.000000                 
CM-1012          1                MH-63            0.031135 0.000000 20.777600 0.467688 0.000000                 
CM-1013          1                MH-695           0.954074 0.000000 115.016461 0.195000 0.000000                 
CM-1014          1                MH-36            0.214487 0.000000 54.534328 0.072500 0.000000                 
CM-1015          1                MH-619           6.320214 0.000000 296.029439 0.145663 0.000000                 
CM-1016          1                MH-609           5.732104 0.000000 281.920081 0.008108 0.000000                 
CM-1017          1                MH-695           0.722783 0.000000 100.108980 0.195000 0.000000                 
CM-1018          1                MH-418           0.032865 0.000000 21.346954 0.140133 0.000000                 
CM-1019          1                MH-568           26.295472 0.000000 603.822769 0.107745 0.000000                 
CM-102           1                MH1-33.3         0.753177 0.000000 102.192161 0.248880 0.000000                 
CM-1020          1                MH-516           0.717347 0.000000 99.731791 0.000000 0.000000                 
CM-1021          1                MH-581           0.490257 0.000000 82.448154 0.100000 0.000000                 
CM-1022          1                MH-176           1.241705 0.000000 131.213383 0.117670 0.000000                 
CM-1023          1                MH-302           1.010167 0.000000 118.349259 0.000000 0.000000                 
CM-1024          1                MH-538           0.266627 0.000000 60.802414 0.066000 0.000000                 
CM-1025          1                MH-36            0.214487 0.000000 54.534328 0.072500 0.000000                 
CM-1026          1                MH-732           1.810047 0.000000 158.421425 0.560000 0.000000                 
CM-1027          1                MH-626           0.024958 0.000000 18.602477 0.019000 0.000000                 
CM-1028          1                MH-704           1.538478 0.000000 146.054405 0.570000 0.000000                 
CM-1029          1                MH-462           4.297163 0.000000 244.095567 0.000000 0.000000                 
CM-103           1                MH2-35.2.1       0.745764 0.000000 101.688003 0.384302 0.000000                 
CM-1030          1                MH-674           1.593335 0.000000 148.635523 0.003000 0.000000                 
CM-1031          1                MH-206           3.701144 0.000000 226.535889 0.207000 0.000000                 
CM-1032          1                MH-406           0.992869 0.000000 117.331620 0.592662 0.000000                 
CM-1033          1                MH-504           0.162842 0.000000 47.517415 0.212000 0.000000                 
CM-1034          1                MH-504           0.454921 0.000000 79.421301 0.212000 0.000000                 
CM-1035          1                MH-631           0.184341 0.000000 50.556793 0.000000 0.000000                 
CM-1036          1                MH-580           0.184094 0.000000 50.522896 0.000000 0.000000                 
CM-1037          1                MH-460           0.222395 0.000000 55.530471 0.171925 0.000000                 
CM-1038          1                MH-460           0.222395 0.000000 55.530471 0.171925 0.000000                 
CM-1039          1                MH-115           3.068555 0.000000 206.269934 0.000000 0.000000                 
CM-104           1                MH1-62.2.2       0.627895 0.000000 93.306615 0.007867 0.000000                 
CM-1040          1                MH-228           2.027747 0.000000 167.677912 0.420000 0.000000                 
CM-1041          1                MH-14            1.141380 0.000000 125.800997 0.000000 0.000000                 
CM-1042          1                MH-60            3.371506 0.000000 216.212579 0.328000 0.000000                 
CM-1043          1                MH-2             1.087017 0.000000 122.768537 0.412390 0.000000                 
CM-1044          1                MH-22            3.388309 0.000000 216.750697 0.448352 0.000000                 
CM-1045          1                MH-60            1.599266 0.000000 148.911883 0.328000 0.000000                 
CM-1046          1                MH-66            1.445814 0.000000 141.587577 0.407000 0.000000                 
CM-1047          1                MH-66            3.047798 0.000000 205.571106 0.407000 0.000000                 
CM-1048          1                MH-8             3.419938 0.000000 217.760019 0.417426 0.000000                 
CM-1049          1                MH-95            0.349160 0.000000 69.579481 0.329000 0.000000                 
CM-105           1                MH1-24.1.3       0.676327 0.000000 96.838376 0.000000 0.000000                 
CM-1050          1                MH-2             2.473772 0.000000 185.203347 0.412390 0.000000                 
CM-1051          1                MH-80            1.833028 0.000000 159.423932 0.023333 0.000000                 
CM-1052          1                MH-115           3.096972 0.000000 207.222840 0.000000 0.000000                 
CM-1053          1                MH-127           0.791479 0.000000 104.758331 0.000000 0.000000                 
CM-1054          1                MH-24            1.361798 0.000000 137.412204 0.469000 0.000000                 
CM-1055          1                MH-5             1.445814 0.000000 141.587577 0.274659 0.000000                 
CM-1056          1                MH-71            1.677351 0.000000 152.503924 0.000000 0.000000                 
CM-1057          1                MH-80            7.107245 0.000000 313.920474 0.023333 0.000000                 
CM-1058          1                MH-263           1.369705 0.000000 137.810574 0.000000 0.000000                 
CM-1059          1                MH-16            3.068555 0.000000 206.269934 0.060467 0.000000                 
CM-106           1                MH1-24.1.1.1     0.737362 0.000000 101.113585 0.041294 0.000000                 
CM-1060          1                MH-10            0.456898 0.000000 79.593675 0.000000 0.000000                 
CM-1061          1                MH-228           1.845383 0.000000 159.960317 0.420000 0.000000                 
CM-1062          1                MH-5             3.047798 0.000000 205.571106 0.274659 0.000000                 
CM-1063          1                MH-263           1.578262 0.000000 147.930784 0.000000 0.000000                 
CM-1064          1                MH-16            3.097219 0.000000 207.231107 0.060467 0.000000                 
CM-1065          1                MH-64            0.803587 0.000000 105.556594 0.000000 0.000000                 
CM-1066          1                MH-14            0.803587 0.000000 105.556594 0.000000 0.000000                 
CM-1067          1                MH-54            0.897487 0.000000 111.553454 0.014000 0.000000                 
CM-1068          1                MH-8             2.537031 0.000000 187.556397 0.417426 0.000000                 
CM-1069          1                MH-37            5.308812 0.000000 271.311169 0.501000 0.000000                 
CM-107           1                MH1-24.6         0.858197 0.000000 109.084361 0.077643 0.000000                 
CM-1070          1                MH-10            0.958769 0.000000 115.299112 0.000000 0.000000                 
CM-1071          1                MH-140           0.703262 0.000000 98.747827 0.484439 0.000000                 
CM-1072          1                MH-269           0.917255 0.000000 112.775324 0.000000 0.000000                 
CM-1073          1                MH-259           0.871294 0.000000 109.913555 0.075708 0.000000                 
CM-1074          1                MH-309           3.058176 0.000000 205.920816 0.048680 0.000000                 
CM-1075          1                MH-147           18.708596 0.000000 509.318665 0.300014 0.000000                 
CM-1076          1                MH-36            1.036113 0.000000 119.859519 0.072500 0.000000                 
CM-1077          1                MH-26            1.571837 0.000000 147.629381 0.387500 0.000000                 
CM-1078          1                MH-140           3.551399 0.000000 221.905826 0.484439 0.000000                 
CM-1079          1                MH-333           1.663266 0.000000 151.862273 0.041111 0.000000                 
CM-108           1                MH1-63           1.105302 0.000000 123.796837 0.215633 0.000000                 
CM-1080          1                MH-140           0.842382 0.000000 108.074591 0.484439 0.000000                 
CM-1081          1                MH-325           3.113281 0.000000 207.767751 0.050071 0.000000                 
CM-1082          1                MH-223           0.701532 0.000000 98.626313 0.369000 0.000000                 
CM-1083          1                MH-161           0.797903 0.000000 105.182654 0.308000 0.000000                 
CM-1084          1                MH-87            1.835005 0.000000 159.509875 0.207000 0.000000                 
CM-1085          1                MH-18            3.958381 0.000000 234.276001 0.498333 0.000000                 
CM-1086          1                MH-36            0.913301 0.000000 112.532012 0.072500 0.000000                 
CM-1087          1                MH-36            1.538972 0.000000 146.077862 0.072500 0.000000                 
CM-1088          1                MH-51            2.823920 0.000000 197.876954 0.450863 0.000000                 
CM-1089          1                MH-45            1.768533 0.000000 156.594177 0.506000 0.000000                 
CM-109           1                MH1-45.4         1.074167 0.000000 122.040765 0.010667 0.000000                 
CM-1090          1                MH-629           3.423398 0.000000 217.870130 0.290385 0.000000                 
CM-1091          1                MH-331           2.399393 0.000000 182.397850 0.134814 0.000000                 
CM-1092          1                MH-210           1.680069 0.000000 152.627441 0.086000 0.000000                 
CM-1093          1                MH-146           3.391768 0.000000 216.861321 0.308000 0.000000                 
CM-1094          1                MH-146           3.423398 0.000000 217.870130 0.308000 0.000000                 
CM-1095          1                MH-222           15.273584 0.000000 460.192433 0.074286 0.000000                 
CM-1096          1                MH-381           3.917115 0.000000 233.051624 0.703825 0.000000                 
CM-1097          1                MH-254           3.250177 0.000000 212.286566 0.045714 0.000000                 
CM-1098          1                MH-315           0.809270 0.000000 105.929215 0.044000 0.000000                 
CM-1099          1                MH-629           1.593088 0.000000 148.623997 0.290385 0.000000                 
CM-11            1                MH1-40.1         0.700544 0.000000 98.556809 0.000000 0.000000                 
CM-110           1                MH1-68           0.827309 0.000000 107.103293 0.000000 0.000000                 
CM-1100          1                MH-269           2.489340 0.000000 185.785183 0.000000 0.000000                 
CM-1101          1                MH-26            0.947402 0.000000 114.613600 0.387500 0.000000                 
CM-1102          1                MH-26            0.964205 0.000000 115.625529 0.387500 0.000000                 
CM-1103          1                MH-569           3.700156 0.000000 226.505637 0.307151 0.000000                 
CM-1104          1                MH-569           1.755190 0.000000 156.002302 0.307151 0.000000                 
CM-1105          1                MH-145           0.877718 0.000000 110.318051 0.318000 0.000000                 
CM-1106          1                MH-354           0.877718 0.000000 110.318051 0.513000 0.000000                 
CM-1107          1                MH-198           1.737892 0.000000 155.231699 0.332127 0.000000                 
CM-1108          1                MH-468           1.593088 0.000000 148.623997 0.314444 0.000000                 
CM-1109          1                MH-78            1.833028 0.000000 159.423932 0.062222 0.000000                 
CM-111           1                MH1-68           0.849795 0.000000 108.549090 0.000000 0.000000                 
CM-1110          1                MH-27            3.587476 0.000000 223.030109 0.000000 0.000000                 
CM-1111          1                MH-6             0.481855 0.000000 81.738640 0.140000 0.000000                 
CM-1112          1                MH-17            0.481855 0.000000 81.738640 0.301000 0.000000                 
CM-1113          1                MH-12            0.481855 0.000000 81.738640 0.000000 0.000000                 
CM-1114          1                MH-12            0.481855 0.000000 81.738640 0.000000 0.000000                 
CM-1115          1                MH-39            0.647416 0.000000 94.745970 0.141000 0.000000                 
CM-1116          1                MH-28            0.647416 0.000000 94.745970 0.242765 0.000000                 
CM-1117          1                MH-17            0.647416 0.000000 94.745970 0.301000 0.000000                 
CM-1118          1                MH-28            0.715864 0.000000 99.628674 0.242765 0.000000                 
CM-1119          1                MH-17            0.715864 0.000000 99.628674 0.301000 0.000000                 
CM-112           1                MH1-24.6         0.874506 0.000000 110.115989 0.077643 0.000000                 
CM-1120          1                MH-11            3.047798 0.000000 205.571106 0.000000 0.000000                 
CM-1121          1                MH-11            3.076215 0.000000 206.527237 0.000000 0.000000                 
CM-1122          1                MH-20            0.682011 0.000000 97.244409 0.353834 0.000000                 
CM-1123          1                MH-20            2.214806 0.000000 175.241434 0.353834 0.000000                 
CM-1124          1                MH-20            3.047798 0.000000 205.571106 0.353834 0.000000                 
CM-1125          1                MH-79            5.046633 0.000000 264.526917 0.305000 0.000000                 
CM-1126          1                MH-7             3.371506 0.000000 216.212579 0.222491 0.000000                 
CM-1127          1                MH-39            0.715864 0.000000 99.628674 0.141000 0.000000                 
CM-1128          1                MH-188           2.972431 0.000000 203.013474 0.064223 0.000000                 
CM-1129          1                MH-269           3.551399 0.000000 221.905826 0.000000 0.000000                 
CM-113           1                MH1-24.1.4       0.713146 0.000000 99.439347 0.317251 0.000000                 
CM-1130          1                MH-87            3.741423 0.000000 227.765206 0.207000 0.000000                 
CM-1131          1                MH-147           4.263309 0.000000 243.132162 0.300014 0.000000                 
CM-1132          1                MH-120           3.080169 0.000000 206.659913 0.006000 0.000000                 
CM-1133          1                MH-277           9.441155 0.000000 361.810837 0.382000 0.000000                 
CM-1134          1                MH-30            2.348242 0.000000 180.443177 0.173333 0.000000                 
CM-1135          1                MH-144           7.407725 0.000000 320.487746 0.241000 0.000000                 
CM-1136          1                MH-17            0.647416 0.000000 94.745970 0.301000 0.000000                 
CM-1137          1                MH-130           5.627084 0.000000 279.325567 0.299015 0.000000                 
CM-1138          1                MH-7             1.599266 0.000000 148.911883 0.222491 0.000000                 
CM-1139          1                MH-43            2.077909 0.000000 169.739249 0.287000 0.000000                 
CM-114           1                MH1-24.7         0.803340 0.000000 105.540364 0.292840 0.000000                 
CM-1140          1                MH-132           0.733903 0.000000 100.876110 0.315513 0.000000                 
CM-1141          1                MH-111           3.014933 0.000000 204.459745 0.038000 0.000000                 
CM-1142          1                MH-65            3.392263 0.000000 216.877119 0.338653 0.000000                 
CM-1143          1                MH-96            3.392263 0.000000 216.877119 0.293024 0.000000                 
CM-1144          1                MH-78            7.467278 0.000000 321.773404 0.062222 0.000000                 
CM-1145          1                MH-17            0.715864 0.000000 99.628674 0.301000 0.000000                 
CM-1146          1                MH-119           7.491988 0.000000 322.305367 0.324933 0.000000                 
CM-1147          1                MH-302           0.846089 0.000000 108.312101 0.000000 0.000000                 
CM-1148          1                MH-497           1.066260 0.000000 121.590740 0.000000 0.000000                 
CM-1149          1                MH-441           0.673856 0.000000 96.661309 0.000000 0.000000                 
CM-115           1                MH1-13.2.4       1.926928 0.000000 163.456320 0.000000 0.000000                 
CM-1150          1                MH-272           0.763061 0.000000 102.860527 0.000000 0.000000                 
CM-1151          1                MH-311           0.702026 0.000000 98.661047 0.265309 0.000000                 
CM-1152          1                MH-284           0.760343 0.000000 102.677160 0.037567 0.000000                 
CM-1153          1                MH-483           1.290879 0.000000 133.786313 0.049000 0.000000                 
CM-1154          1                MH-512           1.124329 0.000000 124.857835 0.329517 0.000000                 
CM-1155          1                MH-709           0.857950 0.000000 109.068655 0.471935 0.000000                 
CM-1156          1                MH-303           1.140638 0.000000 125.760137 0.000000 0.000000                 
CM-1157          1                MH-268           1.175233 0.000000 127.652999 0.064928 0.000000                 
CM-1158          1                MH-350           1.068731 0.000000 121.731551 0.042873 0.000000                 
CM-1159          1                MH-300           1.459899 0.000000 142.275573 0.299461 0.000000                 
CM-116           1                MH1-64.5.3       0.917996 0.000000 112.820887 0.314985 0.000000                 
CM-1160          1                MH-264           6.019487 0.000000 288.900799 0.385015 0.000000                 
CM-1161          1                MH-268           0.468265 0.000000 80.577671 0.064928 0.000000                 
CM-1162          1                MH-268           0.533501 0.000000 86.007519 0.064928 0.000000                 
CM-1163          1                MH-234           0.553022 0.000000 87.566934 0.062168 0.000000                 
CM-1164          1                MH-234           0.617516 0.000000 92.532273 0.062168 0.000000                 
CM-1165          1                MH-137           1.842418 0.000000 159.831749 0.430000 0.000000                 
CM-1166          1                MH-118           0.478149 0.000000 81.423654 0.114286 0.000000                 
CM-1167          1                MH-499           0.957039 0.000000 115.195058 0.374254 0.000000                 
CM-1168          1                MH-292           1.566401 0.000000 147.373866 0.000000 0.000000                 
CM-1169          1                MH-162           0.982738 0.000000 116.731454 0.271203 0.000000                 
CM-117           1                MH1-62.2.1       0.872776 0.000000 110.007032 0.200716 0.000000                 
CM-1170          1                MH-117           1.036113 0.000000 119.859519 0.322747 0.000000                 
CM-1171          1                MH-229           6.613528 0.000000 302.820737 0.153000 0.000000                 
CM-1172          1                MH-229           1.135696 0.000000 125.487397 0.153000 0.000000                 
CM-1173          1                MH-362           0.943695 0.000000 114.389176 0.163583 0.000000                 
CM-1174          1                MH-163           1.364022 0.000000 137.524362 0.395910 0.000000                 
CM-1175          1                MH-455           1.803375 0.000000 158.129184 0.386460 0.000000                 
CM-1176          1                MH-498           0.674103 0.000000 96.679030 1.185464 0.000000                 
CM-1177          1                MH-441           0.922691 0.000000 113.109025 0.000000 0.000000                 
CM-1178          1                MH-292           1.247141 0.000000 131.500303 0.000000 0.000000                 
CM-1179          1                MH-63            0.552528 0.000000 87.527798 0.467688 0.000000                 
CM-118           1                MH2-47           0.578721 0.000000 89.578451 0.000000 0.000000                 
CM-1180          1                MH-498           0.846830 0.000000 108.359540 1.185464 0.000000                 
CM-1181          1                MH-465           2.135979 0.000000 172.094694 0.077000 0.000000                 
CM-1182          1                MH2-29           10.624049 0.000000 383.808004 0.000000 0.000000                 
CM-1183          1                MH-433           1.644733 0.000000 151.013842 0.146250 0.000000                 
CM-1184          1                MH-267           1.141874 0.000000 125.828229 0.332500 0.000000                 
CM-1185          1                MH-317           1.077627 0.000000 122.237130 0.077000 0.000000                 
CM-1186          1                MH-383           0.999294 0.000000 117.710627 0.301885 0.000000                 
CM-1187          1                MH-412           1.025487 0.000000 119.243345 0.275893 0.000000                 
CM-1188          1                MH-292           0.702521 0.000000 98.695768 0.000000 0.000000                 
CM-1189          1                MH-220           1.359821 0.000000 137.312431 0.000000 0.000000                 
CM-119           1                MH2-47           0.593547 0.000000 90.718655 0.000000 0.000000                 
CM-1190          1                MH-275           1.047974 0.000000 120.543622 0.000000 0.000000                 
CM-1191          1                MH-275           1.161395 0.000000 126.899243 0.000000 0.000000                 
CM-1192          1                MH-352           0.876977 0.000000 110.271454 0.058322 0.000000                 
CM-1193          1                MH-375           1.008190 0.000000 118.233401 0.000000 0.000000                 
CM-1194          1                MH-379           0.584651 0.000000 90.036265 0.049726 0.000000                 
CM-1195          1                MH-350           1.397381 0.000000 139.195888 0.042873 0.000000                 
CM-1196          1                MH-406           1.776441 0.000000 156.943865 0.592662 0.000000                 
CM-1197          1                MH2-32           0.491245 0.000000 82.531225 0.000000 0.000000                 
CM-1198          1                MH-151           1.616069 0.000000 149.692132 0.556214 0.000000                 
CM-1199          1                MH-220           0.972113 0.000000 116.098679 0.000000 0.000000                 
CM-12            1                MH1-13.2.5       4.490152 0.000000 249.516641 0.590168 0.000000                 
CM-120           1                MH1-45.4         1.195249 0.000000 128.735447 0.010667 0.000000                 
CM-1200          1                MH-93            1.155465 0.000000 126.574830 0.252030 0.000000                 
CM-1201          1                MH-420           1.531806 0.000000 145.737367 0.097840 0.000000                 
CM-1202          1                MH-420           0.760837 0.000000 102.710524 0.097840 0.000000                 
CM-1203          1                MH-319           0.926645 0.000000 113.351099 0.071720 0.000000                 
CM-1204          1                MH-352           1.064530 0.000000 121.492075 0.058322 0.000000                 
CM-1205          1                MH-275           1.321767 0.000000 135.377472 0.000000 0.000000                 
CM-1206          1                MH-351           1.936565 0.000000 163.864556 0.098710 0.000000                 
CM-1207          1                MH-195           0.801116 0.000000 105.394174 0.000000 0.000000                 
CM-1208          1                MH2-45           2.750283 0.000000 195.279963 0.000000 0.000000                 
CM-1209          1                MH-379           0.791726 0.000000 104.774683 0.049726 0.000000                 
CM-121           1                MH1-50.4.1       0.668914 0.000000 96.306196 0.130878 0.000000                 
CM-1210          1                MH-67            2.511579 0.000000 186.613230 0.118567 0.000000                 
CM-1211          1                MH-334           5.548998 0.000000 277.380739 0.050364 0.000000                 
CM-1212          1                MH-63            0.496682 0.000000 82.986630 0.467688 0.000000                 
CM-1213          1                MH-151           1.024005 0.000000 119.157114 0.556214 0.000000                 
CM-1214          1                MH-149           1.070461 0.000000 121.830023 0.006000 0.000000                 
CM-1215          1                MH-73            1.187588 0.000000 128.322255 0.000000 0.000000                 
CM-1216          1                MH-48            1.096407 0.000000 123.297655 0.263223 0.000000                 
CM-1217          1                MH-149           3.552140 0.000000 221.928985 0.006000 0.000000                 
CM-1218          1                MH-61            3.340865 0.000000 215.227840 0.016000 0.000000                 
CM-1219          1                MH-195           1.974866 0.000000 165.477076 0.000000 0.000000                 
CM-122           1                MH1-50.4.1       0.559199 0.000000 88.054667 0.130878 0.000000                 