[TITLE]
;;Project Title/Notes

[OPTIONS]
;;Option             Value
FLOW_UNITS           CMS
INFILTRATION         HORTON
FLOW_ROUTING         DYNWAVE
LINK_OFFSETS         DEPTH
MIN_SLOPE            0
ALLOW_PONDING        NO
SKIP_STEADY_STATE    NO

START_DATE           01/01/2011
START_TIME           00:00:00
REPORT_START_DATE    01/01/2011
REPORT_START_TIME    00:00:00
END_DATE             01/01/2011
END_TIME             07:00:00
SWEEP_START          1/1
SWEEP_END            12/31
DRY_DAYS             0
REPORT_STEP          00:01:00
WET_STEP             00:01:00
DRY_STEP             24:00:00
ROUTING_STEP         0:00:10 

INERTIAL_DAMPING     PARTIAL
NORMAL_FLOW_LIMITED  FROUDE
FORCE_MAIN_EQUATION  H-W
VARIABLE_STEP        0.75
LENGTHENING_STEP     0
MIN_SURFAREA         0
MAX_TRIALS           0
HEAD_TOLERANCE       0
SYS_FLOW_TOL         5
LAT_FLOW_TOL         5
MINIMUM_STEP         0.5
THREADS              1

[EVAPORATION]
;;Data Source    Parameters
;;-------------- ----------------
CONSTANT         0.0
DRY_ONLY         NO

[RAINGAGES]
;;Name           Format    Interval SCF      Source    
;;-------------- --------- ------ ------ ----------
plan50mm         INTENSITY 0.08333  1.0      TIMESERIES RN#1            

[SUBCATCHMENTS]
;;Name           Rain Gage        Outlet           Area     %Imperv  Width    %Slope   CurbLen  SnowPack        
;;-------------- ---------------- ---------------- -------- -------- -------- -------- -------- ----------------
152134001#1      plan50mm         152134001        0.12     90       38.1     2        0                        
152134002#1      plan50mm         152134002        0.22     90       69.9     2        0                        
152134003#1      plan50mm         152134003        0.12     90       38.1     2        0                        
152134004#1      plan50mm         152134004        0.1      90       31.8     2        0                        
152134005#1      plan50mm         152134005        0.09     90       28.6     2        0                        
152134047#1      plan50mm         152134047        0.14     90       44.5     2        0                        
152134048#1      plan50mm         152134048        0.08     90       25.4     2        0                        
152134053#1      plan50mm         152134053        0.05     90       15.9     2        0                        
152143006#1      plan50mm         152143006        0.32     90       101.7    2        0                        
152143007#1      plan50mm         152143007        0.16     90       50.8     2        0                        
152143008#1      plan50mm         152143008        0.13     90       41.3     2        0                        
152143009#1      plan50mm         152143009        0.01     90       3.2      2        0                        
152143010#1      plan50mm         152143010        0.09     90       28.6     2        0                        
152143011#1      plan50mm         152143011        0.16     90       50.8     2        0                        
152143012#1      plan50mm         152143012        0.09     90       28.6     2        0                        
152143013#1      plan50mm         152143013        0.21     90       66.7     2        0                        
152143014#1      plan50mm         152143014        0.01     90       3.2      2        0                        
152143015#1      plan50mm         152143015        0.1      90       31.8     2        0                        
152143016#1      plan50mm         152143016        0.07     90       22.2     2        0                        
152143017#1      plan50mm         152143017        0.01     90       3.2      2        0                        
152143018#1      plan50mm         152143018        0.12     90       38.1     2        0                        
152143019#1      plan50mm         152143019        0.17     90       54       2        0                        
152143020#1      plan50mm         152143020        0.11     90       35       2        0                        
152143021#1      plan50mm         152143021        0.23     90       73.1     2        0                        
152143022#1      plan50mm         152143022        0.2      90       63.6     2        0                        
152143023#1      plan50mm         152143023        0.09     90       28.6     2        0                        
152143024#1      plan50mm         152143024        0.01     90       3.2      2        0                        
152143025#1      plan50mm         152143025        0.09     90       28.6     2        0                        
152143026#1      plan50mm         152143026        0.16     90       50.8     2        0                        
152143027#1      plan50mm         152143027        0.1      90       31.8     2        0                        
152143028#1      plan50mm         152143028        0.09     90       28.6     2        0                        
152143029#1      plan50mm         152143029        0.13     90       41.3     2        0                        
152143030#1      plan50mm         152143030        0.08     90       25.4     2        0                        
152143031#1      plan50mm         152143031        0.1      90       31.8     2        0                        
152143032#1      plan50mm         152143032        0.09     90       28.6     2        0                        
152144001#1      plan50mm         152144001        0.04     90       12.7     2        0                        
152144002#1      plan50mm         152144002        0.04     90       12.7     2        0                        
152144003#1      plan50mm         152144003        0.01     90       3.2      2        0                        
152144004#1      plan50mm         152144004        0.09     90       28.6     2        0                        
152144005#1      plan50mm         152144005        0.12     90       38.1     2        0                        
152144006#1      plan50mm         152144006        0.11     90       35       2        0                        
152144007#1      plan50mm         152144007        0.07     90       22.2     2        0                        
152144008#1      plan50mm         152144008        0.02     90       6.4      2        0                        
152144010#1      plan50mm         152144010        0.07     90       22.2     2        0                        
152144011#1      plan50mm         152144011        0.19     90       60.4     2        0                        
152144014#1      plan50mm         152144014        0.13     90       41.3     2        0                        
152144017#1      plan50mm         152144017        0.12     90       38.1     2        0                        
152144018#1      plan50mm         152144018        0.02     90       6.4      2        0                        
152144019#1      plan50mm         152144019        0.05     90       15.9     2        0                        
152144021#1      plan50mm         152144021        0.11     90       35       2        0                        
152144022#1      plan50mm         152144022        0.09     90       28.6     2        0                        
152144023#1      plan50mm         152144023        0.07     90       22.2     2        0                        
152144024#1      plan50mm         152144024        0.1      90       31.8     2        0                        
152144025#1      plan50mm         152144025        0.08     90       25.4     2        0                        
152144032#1      plan50mm         152144032        0.15     90       47.7     2        0                        
152144033#1      plan50mm         152144033        0.11     90       35       2        0                        
152144034#1      plan50mm         152144034        0.16     90       50.8     2        0                        
152144035#1      plan50mm         152144035        0.07     90       22.2     2        0                        
152144037#1      plan50mm         152144037        0.06     90       19.1     2        0                        
152144038#1      plan50mm         152144038        0.07     90       22.2     2        0                        
152144039#1      plan50mm         152144039        0.08     90       25.4     2        0                        
152144043#1      plan50mm         152144043        0.08     90       25.4     2        0                        
152144044#1      plan50mm         152144044        0.05     90       15.9     2        0                        
152144045#1      plan50mm         152144045        0.05     90       15.9     2        0                        
152144049#1      plan50mm         152144049        0.09     90       28.6     2        0                        
152144050#1      plan50mm         152144050        0.08     90       25.4     2        0                        
152144051#1      plan50mm         152144051        0.07     90       22.2     2        0                        
152144052#1      plan50mm         152144052        0.04     90       12.7     2        0                        
152144054#1      plan50mm         152144054        0.06     90       19.1     2        0                        
152144055#1      plan50mm         152144055        0.09     90       28.6     2        0                        
152144056#1      plan50mm         152144056        0.01     90       3.2      2        0                        
152144057#1      plan50mm         152144057        0.07     90       22.2     2        0                        
152144058#1      plan50mm         152144058        0.05     90       15.9     2        0                        
152144060#1      plan50mm         152144060        0.06     90       19.1     2        0                        
152144061#1      plan50mm         152144061        0.07     90       22.2     2        0                        
152144062#1      plan50mm         152144062        0.05     90       15.9     2        0                        
152144063#1      plan50mm         152144063        0.06     90       19.1     2        0                        
152144064#1      plan50mm         152144064        0.04     90       12.7     2        0                        
152144065#1      plan50mm         152144065        0.17     90       54       2        0                        
152144066#1      plan50mm         152144066        0.09     90       28.6     2        0                        
152144068#1      plan50mm         152144068        0.05     90       15.9     2        0                        
152144070#1      plan50mm         152144070        0.13     90       41.3     2        0                        
152144074#1      plan50mm         152144074        0.02     90       6.4      2        0                        
152144076#1      plan50mm         152144076        0.04     90       12.7     2        0                        
152144077#1      plan50mm         152144077        0.05     90       15.9     2        0                        
152144078#1      plan50mm         152144078        0.06     90       19.1     2        0                        
152241001#1      plan50mm         152241001        0.15     90       47.7     2        0                        
152241008#1      plan50mm         152241008        0.11     90       35       2        0                        
152241009#1      plan50mm         152241009        0.05     90       15.9     2        0                        
152241010#1      plan50mm         152241010        0.26     90       82.6     2        0                        
152241011#1      plan50mm         152241011        0.04     90       12.7     2        0                        
152241012#1      plan50mm         152241012        0.09     90       28.6     2        0                        
152241013#1      plan50mm         152241013        0.06     90       19.1     2        0                        
152241014#1      plan50mm         152241014        0.12     90       38.1     2        0                        
152241015#1      plan50mm         152241015        0.11     90       35       2        0                        
152241016#1      plan50mm         152241016        0.07     90       22.2     2        0                        
152241017#1      plan50mm         152241017        0.21     90       66.7     2        0                        
152241018#1      plan50mm         152241018        0.01     90       3.2      2        0                        
152241019#1      plan50mm         152241019        0.07     90       22.2     2        0                        
152241020#1      plan50mm         152241020        0.02     90       6.4      2        0                        
152241021#1      plan50mm         152241021        0.09     90       28.6     2        0                        
152241022#1      plan50mm         152241022        0.18     90       57.2     2        0                        
152241023#1      plan50mm         152241023        0.08     90       25.4     2        0                        
152241024#1      plan50mm         152241024        0.06     90       19.1     2        0                        
152241025#1      plan50mm         152241025        0.05     90       15.9     2        0                        
152241026#1      plan50mm         152241026        0.05     90       15.9     2        0                        
152241029#1      plan50mm         152241029        0.05     90       15.9     2        0                        
152241031#1      plan50mm         152241031        0.08     90       25.4     2        0                        
152241033#1      plan50mm         152241033        0.1      90       31.8     2        0                        
152241035#1      plan50mm         152241035        0.1      90       31.8     2        0                        
152241036#1      plan50mm         152241036        0.06     90       19.1     2        0                        
152241037#1      plan50mm         152241037        0.11     90       35       2        0                        
152241038#1      plan50mm         152241038        0.04     90       12.7     2        0                        
152241039#1      plan50mm         152241039        0.04     90       12.7     2        0                        
152241055#1      plan50mm         152241055        0.07     90       22.2     2        0                        
152241056#1      plan50mm         152241056        0.08     90       25.4     2        0                        
152241057#1      plan50mm         152241057        0.11     90       35       2        0                        
152241058#1      plan50mm         152241058        0.06     90       19.1     2        0                        
152241059#1      plan50mm         152241059        0.03     90       9.5      2        0                        
152241060#1      plan50mm         152241060        0.1      90       31.8     2        0                        
152241061#1      plan50mm         152241061        0.13     90       41.3     2        0                        
152242011#1      plan50mm         152242011        0.19     90       60.4     2        0                        
152242012#1      plan50mm         152242012        0.08     90       25.4     2        0                        
152242062#1      plan50mm         152242062        0.08     90       25.4     2        0                        
162113002#1      plan50mm         162113002        0.52     90       165.3    2        0                        
162113004#1      plan50mm         162113004        0.66     90       209.7    2        0                        
162113008#1      plan50mm         162113008        0.17     90       54       2        0                        
162113009#1      plan50mm         162113009        0.12     90       38.1     2        0                        
162113010#1      plan50mm         162113010        0.17     90       54       2        0                        
162113011#1      plan50mm         162113011        0.21     90       66.7     2        0                        
162113012#1      plan50mm         162113012        0.06     90       19.1     2        0                        
162113014#1      plan50mm         162113014        0.18     90       57.2     2        0                        
162113015#1      plan50mm         162113015        0.27     90       85.8     2        0                        
162113016#1      plan50mm         162113016        0.11     90       35       2        0                        
162113017#1      plan50mm         162113017        0.25     90       79.5     2        0                        
162113018#1      plan50mm         162113018        0.01     90       3.2      2        0                        
162113019#1      plan50mm         162113019        0.18     90       57.2     2        0                        
162113020#1      plan50mm         162113020        0.1      90       31.8     2        0                        
162113021#1      plan50mm         162113021        0.14     90       44.5     2        0                        
162113022#1      plan50mm         162113022        0.08     90       25.4     2        0                        
162113023#1      plan50mm         162113023        0.16     90       50.8     2        0                        
162113024#1      plan50mm         162113024        0.17     90       54       2        0                        
162113025#1      plan50mm         162113025        0.05     90       15.9     2        0                        
162113026#1      plan50mm         162113026        0.19     90       60.4     2        0                        
162113027#1      plan50mm         162113027        0.23     90       73.1     2        0                        
162113028#1      plan50mm         162113028        0.12     90       38.1     2        0                        
162113029#1      plan50mm         162113029        0.1      90       31.8     2        0                        
162113030#1      plan50mm         162113030        0.13     90       41.3     2        0                        
162113031#1      plan50mm         162113031        0.05     90       15.9     2        0                        
162113032#1      plan50mm         162113032        0.04     90       12.7     2        0                        
162113033#1      plan50mm         162113033        0.05     90       15.9     2        0                        
162113034#1      plan50mm         162113034        0.06     90       19.1     2        0                        
162113035#1      plan50mm         162113035        0.06     90       19.1     2        0                        
162113036#1      plan50mm         162113036        0.11     90       35       2        0                        
162113037#1      plan50mm         162113037        0.19     90       60.4     2        0                        
162113038#1      plan50mm         162113038        0.33     90       104.9    2        0                        
162113039#1      plan50mm         162113039        0.25     90       79.5     2        0                        
162113040#1      plan50mm         162113040        0.37     90       117.6    2        0                        
162113041#1      plan50mm         162113041        0.39     90       123.9    2        0                        
162114001#1      plan50mm         162114001        0.01     90       3.2      2        0                        
162114002#1      plan50mm         162114002        0.01     90       3.2      2        0                        
162114003#1      plan50mm         162114003        0.01     90       3.2      2        0                        
162114004#1      plan50mm         162114004        0.01     90       3.2      2        0                        
162114005#1      plan50mm         162114005        0.04     90       12.7     2        0                        
162114006#1      plan50mm         162114006        0.01     90       3.2      2        0                        
162114007#1      plan50mm         162114007        0.09     90       28.6     2        0                        
162114008#1      plan50mm         162114008        0.14     90       44.5     2        0                        
162114009#1      plan50mm         162114009        0.02     90       6.4      2        0                        
162114010#1      plan50mm         162114010        0.01     90       3.2      2        0                        
162114011#1      plan50mm         162114011        0.17     90       54       2        0                        
162114012#1      plan50mm         162114012        0.04     90       12.7     2        0                        
162114013#1      plan50mm         162114013        0.01     90       3.2      2        0                        
162114014#1      plan50mm         162114014        0.11     90       35       2        0                        
162114017#1      plan50mm         162114017        0.06     90       19.1     2        0                        
162114022#1      plan50mm         162114022        0.11     90       35       2        0                        
162114027#1      plan50mm         162114027        0.16     90       50.8     2        0                        
162114028#1      plan50mm         162114028        0.13     90       41.3     2        0                        
162114029#1      plan50mm         162114029        0.09     90       28.6     2        0                        
162114030#1      plan50mm         162114030        0.07     90       22.2     2        0                        
162114031#1      plan50mm         162114031        0.12     90       38.1     2        0                        
162114032#1      plan50mm         162114032        0.07     90       22.2     2        0                        
162114033#1      plan50mm         162114033        0.08     90       25.4     2        0                        
162114034#1      plan50mm         162114034        0.1      90       31.8     2        0                        
162114035#1      plan50mm         162114035        0.06     90       19.1     2        0                        
162114036#1      plan50mm         162114036        0.07     90       22.2     2        0                        
162114037#1      plan50mm         162114037        0.01     90       3.2      2        0                        
162114038#1      plan50mm         162114038        0.02     90       6.4      2        0                        
162114039#1      plan50mm         162114039        0.07     90       22.2     2        0                        
162114040#1      plan50mm         162114040        0.05     90       15.9     2        0                        
162114041#1      plan50mm         162114041        0.01     90       3.2      2        0                        
162114042#1      plan50mm         162114042        0.18     90       57.2     2        0                        
162114043#1      plan50mm         162114043        0.07     90       22.2     2        0                        
162114044#1      plan50mm         162114044        0.07     90       22.2     2        0                        
162114046#1      plan50mm         162114046        0.01     90       3.2      2        0                        
162114047#1      plan50mm         162114047        0.07     90       22.2     2        0                        
162114048#1      plan50mm         162114048        0.07     90       22.2     2        0                        
162114049#1      plan50mm         162114049        0.05     90       15.9     2        0                        
162114053#1      plan50mm         162114053        0.09     90       28.6     2        0                        
162114054#1      plan50mm         162114054        0.14     90       44.5     2        0                        
162114055#1      plan50mm         162114055        0.03     90       9.5      2        0                        
162114056#1      plan50mm         162114056        0.13     90       41.3     2        0                        
162114057#1      plan50mm         162114057        0.07     90       22.2     2        0                        
162114058#1      plan50mm         162114058        0.04     90       12.7     2        0                        
162114059#1      plan50mm         162114059        0.04     90       12.7     2        0                        
162114060#1      plan50mm         162114060        0.02     90       6.4      2        0                        
162114061#1      plan50mm         162114061        0.12     90       38.1     2        0                        
162114062#1      plan50mm         162114062        0.14     90       44.5     2        0                        
162114063#1      plan50mm         162114063        0.05     90       15.9     2        0                        
162114064#1      plan50mm         162114064        0.22     90       69.9     2        0                        
162114065#1      plan50mm         162114065        0.21     90       66.7     2        0                        
162114066#1      plan50mm         162114066        0.15     90       47.7     2        0                        
162114067#1      plan50mm         162114067        0.05     90       15.9     2        0                        
162114068#1      plan50mm         162114068        0.13     90       41.3     2        0                        
162114069#1      plan50mm         162114069        0.01     90       3.2      2        0                        
162114070#1      plan50mm         162114070        0.14     90       44.5     2        0                        
162114071#1      plan50mm         162114071        0.14     90       44.5     2        0                        
162114801#1      plan50mm         162114801        0.03     90       9.5      2        0                        
162114807#1      plan50mm         162114807        0.04     90       12.7     2        0                        
162114810#1      plan50mm         162114810        0.01     90       3.2      2        0                        
162114811#1      plan50mm         162114811        0.06     90       19.1     2        0                        
162114860#1      plan50mm         162114860        0.02     90       6.4      2        0                        
162114869#1      plan50mm         162114869        0.03     90       9.5      2        0                        
162122007#1      plan50mm         162122007        0.27     90       85.8     2        0                        
162122008#1      plan50mm         162122008        0.07     90       22.2     2        0                        
162122010#1      plan50mm         162122010        0.31     90       98.5     2        0                        
162123002#1      plan50mm         162123002        0.31     90       98.5     2        0                        
162123003#1      plan50mm         162123003        0.05     90       15.9     2        0                        
162123004#1      plan50mm         162123004        0.16     90       50.8     2        0                        
162123005#1      plan50mm         162123005        0.09     90       28.6     2        0                        
162123006#1      plan50mm         162123006        0.11     90       35       2        0                        
162123007#1      plan50mm         162123007        0.11     90       35       2        0                        
162123008#1      plan50mm         162123008        0.02     90       6.4      2        0                        
162123010#1      plan50mm         162123010        0.17     90       54       2        0                        
162123011#1      plan50mm         162123011        0.05     90       15.9     2        0                        
162123017#1      plan50mm         162123017        0.14     90       44.5     2        0                        
162123018#1      plan50mm         162123018        0.1      90       31.8     2        0                        
162123019#1      plan50mm         162123019        0.07     90       22.2     2        0                        
162123020#1      plan50mm         162123020        0.13     90       41.3     2        0                        
162123021#1      plan50mm         162123021        0.02     90       6.4      2        0                        
162123022#1      plan50mm         162123022        0.07     90       22.2     2        0                        
162123023#1      plan50mm         162123023        0.18     90       57.2     2        0                        
162123024#1      plan50mm         162123024        0.08     90       25.4     2        0                        
162123025#1      plan50mm         162123025        0.08     90       25.4     2        0                        
162123026#1      plan50mm         162123026        0.13     90       41.3     2        0                        
162123027#1      plan50mm         162123027        0.11     90       35       2        0                        
162123028#1      plan50mm         162123028        0.29     90       92.2     2        0                        
162123029#1      plan50mm         162123029        0.51     90       162.1    2        0                        
162123035#1      plan50mm         162123035        0.08     90       25.4     2        0                        
162123036#1      plan50mm         162123036        0.16     90       50.8     2        0                        
162123037#1      plan50mm         162123037        0.15     90       47.7     2        0                        
162123040#1      plan50mm         162123040        0.13     90       41.3     2        0                        
162123041#1      plan50mm         162123041        0.14     90       44.5     2        0                        