[TITLE]
;;Project Title/Notes

[OPTIONS]
;;Option             Value
FLOW_UNITS           GPM
INFILTRATION         HORTON
FLOW_ROUTING         DYNWAVE
LINK_OFFSETS         DEPTH
MIN_SLOPE            0
ALLOW_PONDING        YES
SKIP_STEADY_STATE    NO

START_DATE           01/01/2002
START_TIME           00:00:00
REPORT_START_DATE    01/01/2002
REPORT_START_TIME    00:00:00
END_DATE             01/02/2002
END_TIME             00:00:00
SWEEP_START          01/01
SWEEP_END            12/31
DRY_DAYS             5.000000
REPORT_STEP          00:02:00
WET_STEP             00:05:00
DRY_STEP             01:00:00
ROUTING_STEP         0:00:05 

INERTIAL_DAMPING     NONE
NORMAL_FLOW_LIMITED  BOTH
FORCE_MAIN_EQUATION  H-W
VARIABLE_STEP        0.75
LENGTHENING_STEP     10
MIN_SURFAREA         0
MAX_TRIALS           4
HEAD_TOLERANCE       0.005000
SYS_FLOW_TOL         5
LAT_FLOW_TOL         5
MINIMUM_STEP         0
THREADS              1

[EVAPORATION]
;;Data Source    Parameters
;;-------------- ----------------
CONSTANT         0.0
DRY_ONLY         NO

[JUNCTIONS]
;;Name           Elevation  MaxDepth   InitDepth  SurDepth   Aponded   
;;-------------- ---------- ---------- ---------- ---------- ----------
0                0.680000   9.020000   0.000000   0.000000   0.000000  
100              1.710000   6.620000   0.000000   0.000000   0.000000  
101              3.330000   5.240000   0.000000   0.000000   0.000000  
103              4.140000   5.230000   0.000000   0.000000   0.000000  
104              0.090000   9.630000   0.000000   0.000000   0.000000  
105              3.880000   4.720000   0.000000   0.000000   0.000000  
106              5.610000   3.780000   0.000000   0.000000   0.000000  
107              2.240000   6.100000   0.000000   0.000000   0.000000  
108              3.790000   4.760000   0.000000   0.000000   0.000000  
1082             3.280000   5.050000   0.000000   0.000000   0.000000  
1083             3.780000   4.470000   0.000000   0.000000   0.000000  
1084             3.020000   5.630000   0.000000   0.000000   0.000000  
1085             3.900000   4.670000   0.000000   0.000000   0.000000  
1086             -0.350000  8.700000   0.000000   0.000000   0.000000  
1087             0.960000   7.830000   0.000000   0.000000   0.000000  
1088             2.230000   6.050000   0.000000   0.000000   0.000000  
1089             1.550000   6.750000   0.000000   0.000000   0.000000  
109              0.740000   8.950000   0.000000   0.000000   0.000000  
1090             -0.100000  8.840000   0.000000   0.000000   0.000000  
1091             3.140000   5.260000   0.000000   0.000000   0.000000  
1092             3.310000   5.160000   0.000000   0.000000   0.000000  
1093             2.430000   5.750000   0.000000   0.000000   0.000000  
1094             0.800000   7.830000   0.000000   0.000000   0.000000  
1095             1.260000   7.180000   0.000000   0.000000   0.000000  
1096             3.010000   5.970000   0.000000   0.000000   0.000000  
1097             2.260000   6.280000   0.000000   0.000000   0.000000  
1098             -2.470000  11.000000  0.000000   0.000000   0.000000  
1099             2.270000   6.110000   0.000000   0.000000   0.000000  
1100             0.910000   7.550000   0.000000   0.000000   0.000000  
1101             0.250000   8.550000   0.000000   0.000000   0.000000  
1102             -3.380000  11.500000  0.000000   0.000000   0.000000  
1103             2.020000   6.420000   0.000000   0.000000   0.000000  
1104             3.080000   5.370000   0.000000   0.000000   0.000000  
1106             2.300000   6.200000   0.000000   0.000000   0.000000  
1107             1.720000   6.460000   0.000000   0.000000   0.000000  
1108             1.530000   6.560000   0.000000   0.000000   0.000000  
1109             3.000000   5.190000   0.000000   0.000000   0.000000  
111              -3.150000  13.350000  0.000000   0.000000   0.000000  
1110             3.000000   5.900000   0.000000   0.000000   0.000000  
1112             -5.860000  13.930000  0.000000   0.000000   0.000000  
1115             4.290000   4.720000   0.000000   0.000000   0.000000  
1116             -2.070000  10.650000  0.000000   0.000000   0.000000  
1117             -1.210000  9.410000   0.000000   0.000000   0.000000  
1118             -0.320000  8.530000   0.000000   0.000000   0.000000  
1119             -0.140000  8.310000   0.000000   0.000000   0.000000  
1120             0.050000   8.310000   0.000000   0.000000   0.000000  
1121             1.810000   6.410000   0.000000   0.000000   0.000000  
1122             2.900000   5.340000   0.000000   0.000000   0.000000  
1123             1.480000   6.670000   0.000000   0.000000   0.000000  
1124             1.200000   6.880000   0.000000   0.000000   0.000000  
1125             0.430000   8.100000   0.000000   0.000000   0.000000  
1126             -2.880000  11.820000  0.000000   0.000000   0.000000  
1127             -3.630000  12.720000  0.000000   0.000000   0.000000  
1128             -4.190000  12.810000  0.000000   0.000000   0.000000  
1129             -4.420000  12.940000  0.000000   0.000000   0.000000  
1130             -5.420000  13.780000  0.000000   0.000000   0.000000  
1131             -6.640000  14.900000  0.000000   0.000000   0.000000  
1132             -6.930000  15.290000  0.000000   0.000000   0.000000  
1136             -2.170000  10.850000  0.000000   0.000000   0.000000  
1137             -1.170000  10.240000  0.000000   0.000000   0.000000  
1138             -0.170000  8.830000   0.000000   0.000000   0.000000  
1139             1.670000   6.480000   0.000000   0.000000   0.000000  
1140             -1.720000  10.290000  0.000000   0.000000   0.000000  
1141             3.670000   4.700000   0.000000   0.000000   0.000000  
1143             2.190000   6.460000   0.000000   0.000000   0.000000  
1144             3.050000   5.940000   0.000000   0.000000   0.000000  
1145             1.910000   6.180000   0.000000   0.000000   0.000000  
1146             2.460000   6.280000   0.000000   0.000000   0.000000  
1147             2.900000   6.030000   0.000000   0.000000   0.000000  
1148             2.300000   6.090000   0.000000   0.000000   0.000000  
1149             2.410000   5.940000   0.000000   0.000000   0.000000  
1150             3.000000   6.070000   0.000000   0.000000   0.000000  
1151             3.400000   5.870000   0.000000   0.000000   0.000000  
1152             2.190000   6.370000   0.000000   0.000000   0.000000  
1157             2.600000   5.940000   0.000000   0.000000   0.000000  
1158             3.900000   4.900000   0.000000   0.000000   0.000000  
1177             3.640000   6.040000   0.000000   0.000000   0.000000  
1178             3.240000   4.830000   0.000000   0.000000   0.000000  
1179             2.560000   7.020000   0.000000   0.000000   0.000000  
1180             2.560000   5.960000   0.000000   0.000000   0.000000  
1181             2.700000   5.950000   0.000000   0.000000   0.000000  
1182             -1.170000  9.530000   0.000000   0.000000   0.000000  
1183             -0.670000  8.890000   0.000000   0.000000   0.000000  
1184             0.770000   7.670000   0.000000   0.000000   0.000000  
1185             2.180000   6.330000   0.000000   0.000000   0.000000  
1186             -3.210000  11.500000  0.000000   0.000000   0.000000  
1187             2.640000   5.590000   0.000000   0.000000   0.000000  
1319             3.700000   4.770000   0.000000   0.000000   0.000000  
132              3.950000   4.610000   0.000000   0.000000   0.000000  
1320             2.710000   5.920000   0.000000   0.000000   0.000000  
1321             2.600000   6.150000   0.000000   0.000000   0.000000  
133              4.070000   4.020000   0.000000   0.000000   0.000000  
1366             3.700000   4.680000   0.000000   0.000000   0.000000  
1367             2.700000   5.400000   0.000000   0.000000   0.000000  
1374             2.490000   6.320000   0.000000   0.000000   0.000000  
1375             1.830000   6.510000   0.000000   0.000000   0.000000  
1376             -0.420000  9.220000   0.000000   0.000000   0.000000  
1377             -1.450000  10.210000  0.000000   0.000000   0.000000  
1380             1.020000   7.030000   0.000000   0.000000   0.000000  
1381             0.240000   8.060000   0.000000   0.000000   0.000000  
1382             0.800000   7.340000   0.000000   0.000000   0.000000  
1383             1.480000   7.090000   0.000000   0.000000   0.000000  
1384             4.170000   4.540000   0.000000   0.000000   0.000000  
1385             3.230000   6.600000   0.000000   0.000000   0.000000  
1386             3.350000   6.650000   0.000000   0.000000   0.000000  
1387             3.340000   5.130000   0.000000   0.000000   0.000000  
1388             2.650000   6.050000   0.000000   0.000000   0.000000  
1390             -0.990000  10.040000  0.000000   0.000000   0.000000  
1391             -2.630000  10.800000  0.000000   0.000000   0.000000  
1392             0.010000   8.870000   0.000000   0.000000   0.000000  
1396             -3.750000  12.130000  0.000000   0.000000   0.000000  
1397             -4.220000  12.410000  0.000000   0.000000   0.000000  
1401             -1.060000  9.620000   0.000000   0.000000   0.000000  
1402             -0.610000  10.180000  0.000000   0.000000   0.000000  
1403             5.150000   3.950000   0.000000   0.000000   0.000000  
1404             4.210000   5.390000   0.000000   0.000000   0.000000  
1405             5.500000   3.500000   0.000000   0.000000   0.000000  
1406             0.600000   8.650000   0.000000   0.000000   0.000000  
1409             2.890000   6.030000   0.000000   0.000000   0.000000  
1410             1.550000   8.360000   0.000000   0.000000   0.000000  
1411             1.990000   8.110000   0.000000   0.000000   0.000000  
1413             3.720000   6.200000   0.000000   0.000000   0.000000  
1414             -6.190000  14.610000  0.000000   0.000000   0.000000  
1415             -5.610000  13.600000  0.000000   0.000000   0.000000  
1416             -3.900000  12.650000  0.000000   0.000000   0.000000  
1417             -2.800000  10.950000  0.000000   0.000000   0.000000  
1418             -1.700000  10.870000  0.000000   0.000000   0.000000  
1419             0.810000   8.210000   0.000000   0.000000   0.000000  
1420             1.800000   6.160000   0.000000   0.000000   0.000000  
1421             2.140000   6.430000   0.000000   0.000000   0.000000  
1422             -3.200000  12.000000  0.000000   0.000000   0.000000  
1423             -5.800000  14.630000  0.000000   0.000000   0.000000  
1424             -1.760000  9.960000   0.000000   0.000000   0.000000  
1425             -4.430000  13.280000  0.000000   0.000000   0.000000  
1428             4.940000   3.260000   0.000000   0.000000   0.000000  
1429             -0.290000  8.680000   0.000000   0.000000   0.000000  
1430             -1.550000  10.090000  0.000000   0.000000   0.000000  
1432             4.600000   3.830000   0.000000   0.000000   0.000000  
1433             3.470000   5.530000   0.000000   0.000000   0.000000  
1440             2.120000   7.480001   0.000000   0.000000   0.000000  
1441             3.640000   5.160000   0.000000   0.000000   0.000000  
1442             0.240000   8.570000   0.000000   0.000000   0.000000  
1443             4.250000   5.790000   0.000000   0.000000   0.000000  
1444             -3.170000  11.470000  0.000000   0.000000   0.000000  
1445             2.500000   6.000000   0.000000   0.000000   0.000000  
1446             0.290000   8.030000   0.000000   0.000000   0.000000  
1447             2.600000   6.050000   0.000000   0.000000   0.000000  
1448             2.600000   6.150000   0.000000   0.000000   0.000000  
1449             -10.170000 18.490000  0.000000   0.000000   0.000000  
1450             -9.560000  18.190000  0.000000   0.000000   0.000000  
1451             -6.490000  14.660000  0.000000   0.000000   0.000000  
1452             -5.990000  14.190000  0.000000   0.000000   0.000000  
1453             2.600000   6.050000   0.000000   0.000000   0.000000  
1454             -0.150000  8.360000   0.000000   0.000000   0.000000  
1455             1.240000   6.950000   0.000000   0.000000   0.000000  
1456             2.800000   6.200000   0.000000   0.000000   0.000000  
1457             2.130000   6.230000   0.000000   0.000000   0.000000  
1498             1.750000   6.450000   0.000000   0.000000   0.000000  
1499             2.660000   5.980000   0.000000   0.000000   0.000000  
159              3.740000   4.750000   0.000000   0.000000   0.000000  
1592             0.800000   7.450000   0.000000   0.000000   0.000000  
1593             2.600000   6.120000   0.000000   0.000000   0.000000  
1596             4.680000   3.620000   0.000000   0.000000   0.000000  
160              2.740000   6.180000   0.000000   0.000000   0.000000  
161              4.150000   3.950000   0.000000   0.000000   0.000000  
1617             -2.620000  10.700000  0.000000   0.000000   0.000000  
1619             -4.710000  12.690000  0.000000   0.000000   0.000000  
162              3.140000   5.390000   0.000000   0.000000   0.000000  
1620             -4.130000  12.660000  0.000000   0.000000   0.000000  
1625             1.690000   6.310000   0.000000   0.000000   0.000000  
1626             0.740000   7.310000   0.000000   0.000000   0.000000  
1629             1.740000   6.860000   0.000000   0.000000   0.000000  
163              1.550000   7.620000   0.000000   0.000000   0.000000  
1630             -0.150000  8.620000   0.000000   0.000000   0.000000  
1631             -3.520000  12.490000  0.000000   0.000000   0.000000  
1633             3.600000   5.320000   0.000000   0.000000   0.000000  
1634             2.690000   5.670000   0.000000   0.000000   0.000000  
1635             -5.350000  14.060000  0.000000   0.000000   0.000000  
164              3.150000   5.470000   0.000000   0.000000   0.000000  
165              5.160000   3.740000   0.000000   0.000000   0.000000  
166              4.310000   4.160000   0.000000   0.000000   0.000000  
167              5.270000   3.730000   0.000000   0.000000   0.000000  
168              4.320000   3.800000   0.000000   0.000000   0.000000  
169              3.400000   5.200000   0.000000   0.000000   0.000000  
179              3.660000   5.340000   0.000000   0.000000   0.000000  
180              2.200000   6.080000   0.000000   0.000000   0.000000  
181              4.790000   3.680000   0.000000   0.000000   0.000000  
182              3.040000   5.880000   0.000000   0.000000   0.000000  
183              2.590000   6.610000   0.000000   0.000000   0.000000  
2034             20.549999  9.090000   0.000000   0.000000   0.000000  
2037             19.549999  8.090000   0.000000   0.000000   0.000000  
2038             21.570000  7.160000   0.000000   0.000000   0.000000  
2039             21.370001  4.709999   0.000000   0.000000   0.000000  
2040             20.330000  6.150000   0.000000   0.000000   0.000000  
2041             18.879999  8.130001   0.000000   0.000000   0.000000  
2042             17.680000  9.650000   0.000000   0.000000   0.000000  
2043             18.389999  10.420000  0.000000   0.000000   0.000000  
2044             17.650000  10.700001  0.000000   0.000000   0.000000  
2045             19.590000  9.730000   0.000000   0.000000   0.000000  
2046             15.230000  12.990000  0.000000   0.000000   0.000000  
2047             18.299999  8.040001   0.000000   0.000000   0.000000  
2048             16.930000  10.709999  0.000000   0.000000   0.000000  
2050             20.370001  8.009998   0.000000   0.000000   0.000000  
2051             18.790001  9.150000   0.000000   0.000000   0.000000  
2052             21.219999  6.550001   0.000000   0.000000   0.000000  
2053             21.850000  6.139999   0.000000   0.000000   0.000000  
2055             12.540000  13.259999  0.000000   0.000000   0.000000  
2056             15.920000  11.770000  0.000000   0.000000   0.000000  
2057             14.950000  12.330001  0.000000   0.000000   0.000000  
2058             14.200000  12.790000  0.000000   0.000000   0.000000  
2059             13.550000  13.159999  0.000000   0.000000   0.000000  
2060             15.710000  12.320001  0.000000   0.000000   0.000000  
2061             16.100000  11.709999  0.000000   0.000000   0.000000  
2062             22.100000  5.779999   0.000000   0.000000   0.000000  
2063             21.410000  4.680000   0.000000   0.000000   0.000000  
2064             19.610001  7.219999   0.000000   0.000000   0.000000  
2065             18.650000  8.570000   0.000000   0.000000   0.000000  
2068             23.400000  4.660000   0.000000   0.000000   0.000000  
2069             20.340000  7.129999   0.000000   0.000000   0.000000  
2070             19.820000  5.920000   0.000000   0.000000   0.000000  
2071             22.299999  4.680000   0.000000   0.000000   0.000000  
2072             20.110001  5.789999   0.000000   0.000000   0.000000  
2073             17.650000  9.140001   0.000000   0.000000   0.000000  
2074             13.920000  13.620001  0.000000   0.000000   0.000000  
2075             14.900000  11.980000  0.000000   0.000000   0.000000  
2076             15.100000  11.699999  0.000000   0.000000   0.000000  
2077             16.100000  10.100000  0.000000   0.000000   0.000000  
2078             16.959999  8.590000   0.000000   0.000000   0.000000  
2079             17.900000  7.809999   0.000000   0.000000   0.000000  
2080             21.520000  4.930000   0.000000   0.000000   0.000000  
2081             16.000000  10.490000  0.000000   0.000000   0.000000  
2082             16.760000  9.430000   0.000000   0.000000   0.000000  
2083             17.500000  8.389999   0.000000   0.000000   0.000000  
2084             18.100000  7.969999   0.000000   0.000000   0.000000  
2085             17.100000  9.520000   0.000000   0.000000   0.000000  
2086             19.500000  6.500000   0.000000   0.000000   0.000000  
2087             21.840000  4.700001   0.000000   0.000000   0.000000  
2088             21.650000  4.730000   0.000000   0.000000   0.000000  
2089             18.850000  6.889999   0.000000   0.000000   0.000000  
2090             21.290001  4.740000   0.000000   0.000000   0.000000  
2091             17.150000  9.930000   0.000000   0.000000   0.000000  
2092             20.400000  6.260000   0.000000   0.000000   0.000000  
2093             20.290001  6.179998   0.000000   0.000000   0.000000  
2094             18.500000  8.370001   0.000000   0.000000   0.000000  
2095             19.340000  7.830000   0.000000   0.000000   0.000000  
2096             15.880000  10.339999  0.000000   0.000000   0.000000  
2098             22.209999  4.960001   0.000000   0.000000   0.000000  
2099             18.480000  7.020000   0.000000   0.000000   0.000000  
2100             19.090000  6.200001   0.000000   0.000000   0.000000  
2101             21.160000  5.830000   0.000000   0.000000   0.000000  
2102             21.799999  4.750000   0.000000   0.000000   0.000000  
2103             17.850000  7.779999   0.000000   0.000000   0.000000  
2104             16.850000  9.270000   0.000000   0.000000   0.000000  
2105             15.850000  10.760000  0.000000   0.000000   0.000000  
2106             21.400000  4.740000   0.000000   0.000000   0.000000  
2107             18.100000  7.639999   0.000000   0.000000   0.000000  
2108             17.100000  8.500000   0.000000   0.000000   0.000000  
2109             21.260000  4.709999   0.000000   0.000000   0.000000  
2110             21.299999  4.770000   0.000000   0.000000   0.000000  
2113             16.400000  10.590000  0.000000   0.000000   0.000000  
2115             9.800000   17.519999  0.000000   0.000000   0.000000  
2116             20.420000  6.070000   0.000000   0.000000   0.000000  
2117             20.400000  6.090000   0.000000   0.000000   0.000000  
2118             21.379999  4.710001   0.000000   0.000000   0.000000  
2119             21.420000  4.670000   0.000000   0.000000   0.000000  
2130             19.629999  7.110001   0.000000   0.000000   0.000000  
2131             20.000000  7.420000   0.000000   0.000000   0.000000  
2132             18.940001  7.769999   0.000000   0.000000   0.000000  
2133             16.299999  11.520000  0.000000   0.000000   0.000000  
2134             22.559999  4.680000   0.000000   0.000000   0.000000  
2135             17.799999  8.610001   0.000000   0.000000   0.000000  
2136             18.520000  7.490000   0.000000   0.000000   0.000000  
2137             19.190001  6.420000   0.000000   0.000000   0.000000  
2138             22.639999  4.730001   0.000000   0.000000   0.000000  
2139             22.379999  4.730001   0.000000   0.000000   0.000000  
2140             16.610001  10.760000  0.000000   0.000000   0.000000  
2141             20.650000  7.050000   0.000000   0.000000   0.000000  
2143             21.950001  4.709999   0.000000   0.000000   0.000000  
2144             20.650000  5.760000   0.000000   0.000000   0.000000  
2145             18.959999  9.940001   0.000000   0.000000   0.000000  
2146             19.250000  9.860001   0.000000   0.000000   0.000000  
2147             19.620001  9.059999   0.000000   0.000000   0.000000  
2176             3.010000   6.240000   0.000000   0.000000   0.000000  
2653             13.890000  10.730000  0.000000   0.000000   0.000000  
2654             17.090000  7.240000   0.000000   0.000000   0.000000  
2655             16.450001  8.750000   0.000000   0.000000   0.000000  
2656             15.910000  9.260000   0.000000   0.000000   0.000000  
2657             15.210000  9.749999   0.000000   0.000000   0.000000  
2658             14.720000  10.200000  0.000000   0.000000   0.000000  
2659             13.120000  11.200000  0.000000   0.000000   0.000000  
2660             18.170000  6.410000   0.000000   0.000000   0.000000  
2661             17.770000  6.680000   0.000000   0.000000   0.000000  
2662             17.379999  6.940001   0.000000   0.000000   0.000000  
2663             16.870001  7.459999   0.000000   0.000000   0.000000  
2664             19.740000  4.750000   0.000000   0.000000   0.000000  
2665             17.850000  6.760000   0.000000   0.000000   0.000000  
2676             10.150000  14.510000  0.000000   0.000000   0.000000  
2677             20.120001  6.439999   0.000000   0.000000   0.000000  
2678             21.400000  4.840000   0.000000   0.000000   0.000000  
2679             15.910000  11.430000  0.000000   0.000000   0.000000  
2680             22.280001  5.389999   0.000000   0.000000   0.000000  
2681             20.680000  5.590000   0.000000   0.000000   0.000000  
2682             20.129999  6.390001   0.000000   0.000000   0.000000  
2683             20.799999  6.410000   0.000000   0.000000   0.000000  
2684             17.920000  9.580000   0.000000   0.000000   0.000000  
2685             18.020000  9.480000   0.000000   0.000000   0.000000  
2686             18.820000  8.050001   0.000000   0.000000   0.000000  
2687             20.139999  5.840000   0.000000   0.000000   0.000000  
2688             20.680000  5.619999   0.000000   0.000000   0.000000  
2689             21.350000  5.389999   0.000000   0.000000   0.000000  
2690             22.219999  4.930000   0.000000   0.000000   0.000000  
2691             22.790001  4.500000   0.000000   0.000000   0.000000  
2692             22.379999  4.520000   0.000000   0.000000   0.000000  
2694             17.959999  6.660002   0.000000   0.000000   0.000000  
2695             19.540001  4.779999   0.000000   0.000000   0.000000  
2696             19.559999  4.800001   0.000000   0.000000   0.000000  
2697             18.580000  6.240000   0.000000   0.000000   0.000000  
2698             17.580000  7.629999   0.000000   0.000000   0.000000  
2699             15.830000  9.400000   0.000000   0.000000   0.000000  
2700             16.410000  8.230000   0.000000   0.000000   0.000000  
2701             17.400000  6.820000   0.000000   0.000000   0.000000  
2702             19.740000  5.809999   0.000000   0.000000   0.000000  
2703             20.790001  4.689999   0.000000   0.000000   0.000000  
2704             20.930000  4.719999   0.000000   0.000000   0.000000  
2705             14.330000  10.820000  0.000000   0.000000   0.000000  
2706             16.080000  8.559999   0.000000   0.000000   0.000000  
2707             17.980000  6.250000   0.000000   0.000000   0.000000  
2708             19.559999  5.330000   0.000000   0.000000   0.000000  
2709             20.639999  4.660000   0.000000   0.000000   0.000000  
2710             20.360001  5.619999   0.000000   0.000000   0.000000  
2711             21.420000  4.950001   0.000000   0.000000   0.000000  
2712             21.820000  4.700001   0.000000   0.000000   0.000000  
2713             10.390000  14.440000  0.000000   0.000000   0.000000  
2714             15.250000  10.180000  0.000000   0.000000   0.000000  
2715             17.129999  7.750000   0.000000   0.000000   0.000000  
2716             18.879999  6.250000   0.000000   0.000000   0.000000  
2717             20.270000  6.170000   0.000000   0.000000   0.000000  
2718             21.350000  5.680000   0.000000   0.000000   0.000000  
2719             22.330000  4.799999   0.000000   0.000000   0.000000  
2720             9.210000   15.349999  0.000000   0.000000   0.000000  
2721             9.930000   14.789999  0.000000   0.000000   0.000000  
2722             18.900000  7.130001   0.000000   0.000000   0.000000  
2723             20.500000  4.889999   0.000000   0.000000   0.000000  
2757             22.680000  4.690000   0.000000   0.000000   0.000000  
2759             13.370000  12.890000  0.000000   0.000000   0.000000  
2760             22.070000  4.710001   0.000000   0.000000   0.000000  
2761             21.250000  4.990000   0.000000   0.000000   0.000000  
2765             18.219999  9.680000   0.000000   0.000000   0.000000  
2766             18.160000  8.850000   0.000000   0.000000   0.000000  
2767             22.570000  5.470001   0.000000   0.000000   0.000000  
2768             19.379999  7.320002   0.000000   0.000000   0.000000  
2776             15.190000  10.960000  0.000000   0.000000   0.000000  
2777             14.350000  12.260000  0.000000   0.000000   0.000000  
2778             15.570000  12.380001  0.000000   0.000000   0.000000  
2779             18.850000  8.609999   0.000000   0.000000   0.000000  
2780             16.860001  11.379999  0.000000   0.000000   0.000000  
2781             19.030001  8.619999   0.000000   0.000000   0.000000  
2782             17.830000  10.170000  0.000000   0.000000   0.000000  
2783             14.720000  12.800000  0.000000   0.000000   0.000000  
2785             20.430000  6.110001   0.000000   0.000000   0.000000  
2786             21.930000  5.889999   0.000000   0.000000   0.000000  
2787             20.389999  6.770000   0.000000   0.000000   0.000000  
2807             20.000000  6.040001   0.000000   0.000000   0.000000  
2808             20.080000  5.260000   0.000000   0.000000   0.000000  
2809             20.910000  4.710001   0.000000   0.000000   0.000000  
2810             20.080000  4.719999   0.000000   0.000000   0.000000  
2811             18.790001  6.439999   0.000000   0.000000   0.000000  
2812             19.900000  4.730000   0.000000   0.000000   0.000000  
2813             19.799999  4.700001   0.000000   0.000000   0.000000  
2820             17.719999  8.790001   0.000000   0.000000   0.000000  
2821             17.129999  9.620001   0.000000   0.000000   0.000000  
2822             21.930000  4.580000   0.000000   0.000000   0.000000  
2824             16.590000  9.660000   0.000000   0.000000   0.000000  
2825             17.000000  9.040001   0.000000   0.000000   0.000000  
2826             13.910000  13.010000  0.000000   0.000000   0.000000  
2827             12.590000  13.780001  0.000000   0.000000   0.000000  
2828             21.299999  5.990002   0.000000   0.000000   0.000000  
2829             22.500000  4.879999   0.000000   0.000000   0.000000  
2830             22.670000  4.340000   0.000000   0.000000   0.000000  
2831             22.049999  4.800001   0.000000   0.000000   0.000000  
2832             21.799999  4.910000   0.000000   0.000000   0.000000  
2833             21.549999  4.770000   0.000000   0.000000   0.000000  
2834             20.990000  5.180000   0.000000   0.000000   0.000000  
2835             21.770000  5.709999   0.000000   0.000000   0.000000  
2836             23.290001  4.719999   0.000000   0.000000   0.000000  
2837             23.490000  4.710001   0.000000   0.000000   0.000000  
2838             22.180000  6.219999   0.000000   0.000000   0.000000  
2839             21.969999  4.730001   0.000000   0.000000   0.000000  
2840             19.799999  7.470001   0.000000   0.000000   0.000000  
2841             18.420000  8.510000   0.000000   0.000000   0.000000  
2842             21.900000  4.830000   0.000000   0.000000   0.000000  
2843             19.510000  6.690001   0.000000   0.000000   0.000000  
2844             21.110001  5.490000   0.000000   0.000000   0.000000  
2845             19.010000  7.910000   0.000000   0.000000   0.000000  
2846             17.910000  8.670000   0.000000   0.000000   0.000000  
2847             19.209999  8.080002   0.000000   0.000000   0.000000  
2848             20.570000  6.559999   0.000000   0.000000   0.000000  
2849             21.020000  7.070000   0.000000   0.000000   0.000000  
2850             16.330000  11.120001  0.000000   0.000000   0.000000  