[TITLE]
;;Project Title/Notes

[OPTIONS]
;;Option             Value
FLOW_UNITS           CFS
INFILTRATION         HORTON
FLOW_ROUTING         DYNWAVE
LINK_OFFSETS         DEPTH
MIN_SLOPE            0
ALLOW_PONDING        NO
SKIP_STEADY_STATE    NO

IGNORE_RAINFALL      YES
IGNORE_SNOWMELT      YES
IGNORE_GROUNDWATER   YES
IGNORE_QUALITY       YES
START_DATE           01/01/2002
START_TIME           00:00:00
REPORT_START_DATE    01/01/2002
REPORT_START_TIME    00:00:00
END_DATE             01/01/2002
END_TIME             23:00:00
SWEEP_START          01/01
SWEEP_END            12/31
DRY_DAYS             5.000000
REPORT_STEP          00:05:00
WET_STEP             01:00:00
DRY_STEP             23:00:00
ROUTING_STEP         0:00:10 

INERTIAL_DAMPING     NONE
NORMAL_FLOW_LIMITED  BOTH
FORCE_MAIN_EQUATION  H-W
VARIABLE_STEP        0.75
LENGTHENING_STEP     0
MIN_SURFAREA         0
MAX_TRIALS           0
HEAD_TOLERANCE       0
SYS_FLOW_TOL         5
LAT_FLOW_TOL         5
MINIMUM_STEP         0.5
THREADS              1

[EVAPORATION]
;;Data Source    Parameters
;;-------------- ----------------
CONSTANT         0.0
DRY_ONLY         NO

[JUNCTIONS]
;;Name           Elevation  MaxDepth   InitDepth  SurDepth   Aponded   
;;-------------- ---------- ---------- ---------- ---------- ----------
AY               1944.000000 156.000000 0.000000   0.000000   0.000000  
AY-1             1928.000000 172.000000 0.000000   0.000000   0.000000  
AY-2             1998.000000 102.000000 0.000000   0.000000   0.000000  
AY-3             1771.690000 328.310000 0.000000   0.000000   0.000000  
AY-4             1756.000000 344.000000 0.000000   0.000000   0.000000  
AY-5             1756.000000 344.000000 0.000000   0.000000   0.000000  
AY-6             1679.000000 421.000000 0.000000   0.000000   0.000000  
AY-7             1695.330000 404.670000 0.000000   0.000000   0.000000  
; New Junction
AY-8             1629.000000 471.000000 0.000000   0.000000   0.000000  
BC               1697.500000 402.500000 0.000000   0.000000   0.000000  
BC-1             1725.500000 374.500000 0.000000   0.000000   0.000000  
BC-2             1914.300000 185.700000 0.000000   0.000000   0.000000  
BC-3             1865.600000 234.400000 0.000000   0.000000   0.000000  
D                1698.000000 402.000000 0.000000   0.000000   0.000000  
D-1              1712.300000 387.700000 0.000000   0.000000   0.000000  
E                1575.000000 525.000000 0.000000   0.000000   0.000000  
E-1              1569.000000 531.000000 0.000000   0.000000   0.000000  
E-2              1590.000000 510.000000 0.000000   0.000000   0.000000  
F                1524.000000 576.000000 0.000000   0.000000   0.000000  
F-1              1519.000000 581.000000 0.000000   0.000000   0.000000  
G                1696.000000 404.000000 0.000000   0.000000   0.000000  
G-1              1557.000000 543.000000 0.000000   0.000000   0.000000  
H                1365.000000 735.000000 0.000000   0.000000   0.000000  
H-1              1355.000000 745.000000 0.000000   0.000000   0.000000  
I                1370.000000 730.000000 0.000000   0.000000   0.000000  
I-1              1386.500000 713.500000 0.000000   0.000000   0.000000  
J                1504.000000 596.000000 0.000000   0.000000   0.000000  
J-1              1510.000000 590.000000 0.000000   0.000000   0.000000  
J-2              1444.000000 656.000000 0.000000   0.000000   0.000000  
J-4              0.000000   0.000000   0.000000   0.000000   0.000000  
K                1380.000000 819.000000 0.000000   0.000000   0.000000  
K-1              1384.000000 815.000000 0.000000   0.000000   0.000000  
K-2              1369.000000 830.000000 0.000000   0.000000   0.000000  
L                1516.000000 683.000000 0.000000   0.000000   0.000000  
L-1              1490.000000 709.000000 0.000000   0.000000   0.000000  
L-2              1507.500000 691.500000 0.000000   0.000000   0.000000  
L-3              1500.000000 699.000000 0.000000   0.000000   0.000000  
M                1550.000000 649.000000 0.000000   0.000000   0.000000  
P                1581.000000 618.000000 0.000000   0.000000   0.000000  
Q                1767.000000 432.000000 0.000000   0.000000   0.000000  
Q-1              1717.530000 481.470000 0.000000   0.000000   0.000000  
Q-2              1765.000000 434.000000 0.000000   0.000000   0.000000  
R                1876.500000 322.500000 0.000000   0.000000   0.000000  
R-1              1744.140000 454.860000 0.000000   0.000000   0.000000  
R-1-A            1788.500000 450.000000 0.000000   0.000000   0.000000  
R-2              1787.000000 412.000000 0.000000   0.000000   0.000000  
S                1930.000000 269.000000 0.000000   0.000000   0.000000  
S-1              1856.000000 343.000000 0.000000   0.000000   0.000000  
S-1-A            1894.000000 450.000000 0.000000   0.000000   0.000000  
T                2015.000000 184.000000 0.000000   0.000000   0.000000  
U                2008.300000 191.000000 0.000000   0.000000   0.000000  
U-1              2025.000000 172.000000 0.000000   0.000000   0.000000  
V                1750.500000 448.500000 0.000000   0.000000   0.000000  
V-1              1753.500000 445.500000 0.000000   0.000000   0.000000  
W                1383.000000 816.000000 0.000000   0.000000   0.000000  
W-1              1354.000000 845.000000 0.000000   0.000000   0.000000  
W-2              1444.000000 755.000000 0.000000   0.000000   0.000000  
W-3              1447.000000 752.000000 0.000000   0.000000   0.000000  
W-4              1368.000000 831.000000 0.000000   0.000000   0.000000  
W-5              1371.000000 828.000000 0.000000   0.000000   0.000000  
W-6              1267.000000 932.000000 0.000000   0.000000   0.000000  
W-7              1305.500000 893.500000 0.000000   0.000000   0.000000  
W-8              1389.500000 809.500000 0.000000   0.000000   0.000000  
XO-N             1383.000000 816.000000 0.000000   0.000000   0.000000  

[OUTFALLS]
;;Name           Elevation  Type       Stage Data       Gated    Route To        
;;-------------- ---------- ---------- ---------------- -------- ----------------
GRAVITY-LINE-TIEIN 1300.000000 FREE                        NO                       

[STORAGE]
;;Name           Elev.    MaxDepth   InitDepth  Shape      Curve Name/Params            N/A      Fevap    Psi      Ksat     IMD     
;;-------------- -------- ---------- ----------- ---------- ---------------------------- -------- --------          -------- --------
WW-AY            1934.000000 10.000000  0.000000   TABULAR    UNIFORM-STORAGE              0.000000 0.000000

[CONDUITS]
;;Name           From Node        To Node          Length     Roughness  InOffset   OutOffset  InitFlow   MaxFlow   
;;-------------- ---------------- ---------------- ---------- ---------- ---------- ---------- ---------- ----------
P-AY             AY               AY-1             994.732634 0.013000   0.000000   0.000000   0.000000   0.000000  
; Split Pipe
P-AY-1           AY-1             AY-2             3019.315360 0.013000   0.000000   0.000000   0.000000   0.000000  
; Split Pipe
P-AY-2           AY-2             AY-3             3541.879627 0.013000   0.000000   0.000000   0.000000   0.000000  
; Split Pipe
P-AY-3           AY-3             AY-4             1053.729213 0.013000   0.000000   0.000000   0.000000   0.000000  
; Split Pipe
P-AY-4           AY-4             AY-5             565.243459 0.013000   0.000000   0.000000   0.000000   0.000000  
; Split Pipe
P-AY-5           AY-5             AY-6             2807.220871 0.013000   0.000000   0.000000   0.000000   0.000000  
; Split Pipe
P-AY-6           AY-6             AY-7             568.201682 0.013000   0.000000   0.000000   0.000000   0.000000  
; Splitted conduit
P-AY-7           AY-7             AY-8             394.495431 0.013000   0.000000   0.000000   0.000000   0.000000  
; Split Pipe
P-AY-8           AY-8             BC               568.377884 0.013000   0.000000   0.000000   0.000000   0.000000  
P-BC             BC               BC-1             322.972163 0.013000   0.000000   0.000000   0.000000   0.000000  
; Split Pipe
P-BC-1           BC-1             BC-2             3526.952828 0.013000   0.000000   0.000000   0.000000   0.000000  
; Split Pipe
P-BC-2           BC-2             BC-3             1441.269515 0.013000   0.000000   0.000000   0.000000   0.000000  
; Split Pipe
P-BC-3           BC-3             U                1968.770128 0.013000   0.000000   0.000000   0.000000   0.000000  
P-D              D                D-1              320.618816 0.013000   0.000000   0.000000   0.000000   0.000000  
; Split Pipe
P-D-1            D-1              G                202.717251 0.013000   0.000000   0.000000   0.000000   0.000000  
P-E              E                E-1              215.031232 0.013000   0.000000   0.000000   0.000000   0.000000  
; Split Pipe
P-E-1            E-1              E-2              977.408608 0.013000   0.000000   0.000000   0.000000   0.000000  
; Split Pipe
P-E-2            E-2              P                773.717737 0.013000   0.000000   0.000000   0.000000   0.000000  
P-F              F                F-1              1029.557680 0.013000   0.000000   0.000000   0.000000   0.000000  
; Split Pipe
P-F-1            F-1              L                102.877250 0.013000   0.000000   0.000000   0.000000   0.000000  
P-G              G                G-1              2137.021687 0.013000   0.000000   0.000000   0.000000   0.000000  
; Split Pipe
P-G-1            G-1              E                205.903402 0.013000   0.000000   0.000000   0.000000   0.000000  
P-H              H                H-1              199.950464 0.013000   0.000000   0.000000   0.000000   0.000000  
; Split Pipe
P-H-1            H-1              K                438.642279 0.013000   0.000000   0.000000   0.000000   0.000000  
P-I              I                I-1              84.624366  0.013000   0.000000   0.000000   0.000000   0.000000  
P-I-1            I-1              W                483.354408 0.013000   0.000000   0.000000   0.000000   0.000000  
P-J              J                J-1              203.570404 0.013000   0.000000   0.000000   0.000000   0.000000  
P-J-1            J-1              J-2              829.182565 0.013000   0.000000   0.000000   0.000000   0.000000  
P-J-2            J-2              H                1257.246636 0.013000   0.000000   0.000000   0.000000   0.000000  
P-K              K                K-1              125.364254 0.013000   0.000000   0.000000   0.000000   0.000000  
; Split Pipe
P-K-1            K-1              K-2              892.892123 0.013000   0.000000   0.000000   0.000000   0.000000  
; Split Pipe
P-K-2            K-2              I                61.592390  0.013000   0.000000   0.000000   0.000000   0.000000  
P-L              L                L-1              745.816057 0.013000   0.000000   0.000000   0.000000   0.000000  
; Split Pipe
P-L-1            L-1              L-2              695.639664 0.013000   0.000000   0.000000   0.000000   0.000000  
; Split Pipe
P-L-2            L-2              L-3              347.996764 0.013000   0.000000   0.000000   0.000000   0.000000  
; Split Pipe
P-L-3            L-3              J                90.161844  0.013000   0.000000   0.000000   0.000000   0.000000  
P-M              M                F                573.604219 0.013000   0.000000   0.000000   0.000000   0.000000  
P-P              P                M                1094.537013 0.013000   0.000000   0.000000   0.000000   0.000000  
P-Q              Q                Q-1              753.341862 0.013000   0.000000   0.000000   0.000000   0.000000  
; Split Pipe
P-Q-1            Q-1              Q-2              767.508265 0.013000   0.000000   0.000000   0.000000   0.000000  
; Split Pipe
P-Q-2            Q-2              V                226.327434 0.013000   0.000000   0.000000   0.000000   0.000000  
P-R              R                R-1-A            1096.869267 0.013000   0.000000   0.000000   0.000000   0.000000  
; Split Pipe
P-R-1            R-1              R-2              865.017250 0.013000   0.000000   0.000000   0.000000   0.000000  
; Splitted conduit
P-R-1-A          R-1-A            R-1              703.696952 0.013000   0.000000   0.000000   0.000000   0.000000  
; Split Pipe
P-R-2            R-2              Q                328.888933 0.013000   0.000000   0.000000   0.000000   0.000000  
P-S              S                S-1-A            349.225803 0.013000   0.000000   0.000000   0.000000   0.000000  
; Split Pipe
P-S-1            S-1              R                413.174753 0.013000   0.000000   0.000000   0.000000   0.000000  
; Splitted conduit
P-S-1-A          S-1-A            S-1              653.826883 0.013000   0.000000   0.000000   0.000000   0.000000  
P-T              T                S                977.343695 0.013000   0.000000   0.000000   0.000000   0.000000  
P-U              U                U-1              357.191474 0.013000   0.000000   0.000000   0.000000   0.000000  
P-U-1            U-1              T                342.172796 0.013000   0.000000   0.000000   0.000000   0.000000  
P-V              V                V-1              336.561067 0.013000   0.000000   0.000000   0.000000   0.000000  
; Split Pipe
P-V-1            V-1              D                651.614847 0.013000   0.000000   0.000000   0.000000   0.000000  
P-W              W                W-1              225.876465 0.013000   0.000000   0.000000   0.000000   0.000000  
; Split Pipe
P-W-1            W-1              W-2              1784.597923 0.013000   0.000000   0.000000   0.000000   0.000000  
; Split Pipe
P-W-2            W-2              W-3              602.654505 0.013000   0.000000   0.000000   0.000000   0.000000  
; Split Pipe
P-W-3            W-3              W-4              1038.006467 0.013000   0.000000   0.000000   0.000000   0.000000  
; Split Pipe
P-W-4            W-4              W-5              547.602029 0.013000   0.000000   0.000000   0.000000   0.000000  
; Split Pipe
P-W-5            W-5              W-6              1901.408546 0.013000   0.000000   0.000000   0.000000   0.000000  
; Split Pipe
P-W-6            W-6              W-7              1223.099410 0.013000   0.000000   0.000000   0.000000   0.000000  
; Split Pipe
P-W-7            W-7              W-8              1811.151307 0.013000   0.000000   0.000000   0.000000   0.000000  
; Split Pipe
P-W-8            W-8              XO-N             704.468592 0.013000   0.000000   0.000000   0.000000   0.000000  
P-XON            XO-N             GRAVITY-LINE-TIEIN 1408.269963 0.013000   0.000000   0.000000   0.000000   0.000000  

[PUMPS]
;;Name           From Node        To Node          Pump Curve       Status   Sartup Shutoff 
;;-------------- ---------------- ---------------- ---------------- ------ -------- --------
; pump at Applegate station
PU-AY            WW-AY            AY               *                ON       4.000000 1.000000

[XSECTIONS]
;;Link           Shape        Geom1            Geom2      Geom3      Geom4      Barrels    Culvert   
;;-------------- ------------ ---------------- ---------- ---------- ---------- ---------- ----------
P-AY             FORCE_MAIN   0.333333         130.000000 0.000000   0.000000   1          0         
P-AY-1           FORCE_MAIN   0.333333         130.000000 0.000000   0.000000   1          0         
P-AY-2           FORCE_MAIN   0.333333         130.000000 0.000000   0.000000   1          0         
P-AY-3           FORCE_MAIN   0.333333         130.000000 0.000000   0.000000   1          0         
P-AY-4           FORCE_MAIN   0.333333         130.000000 0.000000   0.000000   1          0         
P-AY-5           FORCE_MAIN   0.333333         130.000000 0.000000   0.000000   1          0         
P-AY-6           FORCE_MAIN   0.333333         130.000000 0.000000   0.000000   1          0         
P-AY-7           FORCE_MAIN   0.333333         130.000000 0.000000   0.000000   1          0         
P-AY-8           FORCE_MAIN   0.333000         130.000000 0.000000   0.000000   1          0         
P-BC             FORCE_MAIN   0.333333         130.000000 0.000000   0.000000   1          0         
P-BC-1           FORCE_MAIN   0.333333         130.000000 0.000000   0.000000   1          0         
P-BC-2           FORCE_MAIN   0.333333         130.000000 0.000000   0.000000   1          0         
P-BC-3           FORCE_MAIN   0.333333         130.000000 0.000000   0.000000   1          0         
P-D              FORCE_MAIN   0.500000         130.000000 0.000000   0.000000   1          0         
P-D-1            FORCE_MAIN   0.500000         130.000000 0.000000   0.000000   1          0         
P-E              FORCE_MAIN   0.666667         130.000000 0.000000   0.000000   1          0         
P-E-1            FORCE_MAIN   0.666667         130.000000 0.000000   0.000000   1          0         
P-E-2            FORCE_MAIN   0.666667         130.000000 0.000000   0.000000   1          0         
P-F              FORCE_MAIN   0.500000         130.000000 0.000000   0.000000   1          0         
P-F-1            FORCE_MAIN   0.500000         130.000000 0.000000   0.000000   1          0         
P-G              FORCE_MAIN   0.500000         130.000000 0.000000   0.000000   1          0         
P-G-1            FORCE_MAIN   0.500000         130.000000 0.000000   0.000000   1          0         
P-H              FORCE_MAIN   0.666667         130.000000 0.000000   0.000000   1          0         
P-H-1            FORCE_MAIN   0.666667         130.000000 0.000000   0.000000   1          0         
P-I              FORCE_MAIN   0.666667         130.000000 0.000000   0.000000   1          0         
P-I-1            FORCE_MAIN   0.666667         130.000000 0.000000   0.000000   1          0         
P-J              FORCE_MAIN   0.666667         130.000000 0.000000   0.000000   1          0         
P-J-1            FORCE_MAIN   0.833333         130.000000 0.000000   0.000000   1          0         
P-J-2            FORCE_MAIN   0.666667         130.000000 0.000000   0.000000   1          0         
P-K              FORCE_MAIN   0.666667         130.000000 0.000000   0.000000   1          0         
P-K-1            FORCE_MAIN   0.666667         130.000000 0.000000   0.000000   1          0         
P-K-2            FORCE_MAIN   0.666667         130.000000 0.000000   0.000000   1          0         
P-L              FORCE_MAIN   0.833333         130.000000 0.000000   0.000000   1          0         
P-L-1            FORCE_MAIN   0.833333         130.000000 0.000000   0.000000   1          0         
P-L-2            FORCE_MAIN   0.833333         130.000000 0.000000   0.000000   1          0         
P-L-3            FORCE_MAIN   0.833333         130.000000 0.000000   0.000000   1          0         
P-M              FORCE_MAIN   0.666667         130.000000 0.000000   0.000000   1          0         
P-P              FORCE_MAIN   0.666667         130.000000 0.000000   0.000000   1          0         
P-Q              FORCE_MAIN   0.500000         130.000000 0.000000   0.000000   1          0         
P-Q-1            FORCE_MAIN   0.500000         130.000000 0.000000   0.000000   1          0         
P-Q-2            FORCE_MAIN   0.500000         130.000000 0.000000   0.000000   1          0         
P-R              FORCE_MAIN   0.500000         130.000000 0.000000   0.000000   1          0         
P-R-1            FORCE_MAIN   0.500000         130.000000 0.000000   0.000000   1          0         
P-R-1-A          FORCE_MAIN   0.500000         130.000000 0.000000   0.000000   1          0         
P-R-2            FORCE_MAIN   0.500000         130.000000 0.000000   0.000000   1          0         
P-S              FORCE_MAIN   0.500000         130.000000 0.000000   0.000000   1          0         
P-S-1            FORCE_MAIN   0.500000         130.000000 0.000000   0.000000   1          0         
P-S-1-A          FORCE_MAIN   0.500000         130.000000 0.000000   0.000000   1          0         
P-T              FORCE_MAIN   0.500000         130.000000 0.000000   0.000000   1          0         
P-U              FORCE_MAIN   0.500000         130.000000 0.000000   0.000000   1          0         
P-U-1            CIRCULAR     0.500000         0.000000   0.000000   0.000000   1          0         
P-V              CIRCULAR     0.500000         0.000000   0.000000   0.000000   1          0         
P-V-1            CIRCULAR     0.500000         0.000000   0.000000   0.000000   1          0         
P-W              CIRCULAR     0.833333         0.000000   0.000000   0.000000   1          0         
P-W-1            CIRCULAR     0.833333         0.000000   0.000000   0.000000   1          0         
P-W-2            CIRCULAR     0.833333         0.000000   0.000000   0.000000   1          0         
P-W-3            CIRCULAR     0.833333         0.000000   0.000000   0.000000   1          0         
P-W-4            CIRCULAR     0.833333         0.000000   0.000000   0.000000   1          0         
P-W-5            CIRCULAR     0.833333         0.000000   0.000000   0.000000   1          0         
P-W-6            CIRCULAR     0.833333         0.000000   0.000000   0.000000   1          0         
P-W-7            CIRCULAR     0.833333         0.000000   0.000000   0.000000   1          0         
P-W-8            CIRCULAR     0.833333         0.000000   0.000000   0.000000   1          0         
P-XON            CIRCULAR     0.833333         0.000000   0.000000   0.000000   1          0         

[LOSSES]
;;Link           Kentry     Kexit      Kavg       Flap Gate  Seepage   
;;-------------- ---------- ---------- ---------- ---------- ----------
P-AY             0.000000   0.000000   0.000000   NO         0         
P-AY-1           0.000000   0.000000   0.000000   NO         0         
P-AY-2           0.000000   0.000000   0.000000   NO         0         
P-AY-3           0.000000   0.000000   0.000000   NO         0         
P-AY-4           0.000000   0.000000   0.000000   NO         0         
P-AY-5           0.000000   0.000000   0.000000   NO         0         
P-AY-6           0.000000   0.000000   0.000000   NO         0         
P-AY-7           0.000000   0.000000   0.000000   NO         0         
P-AY-8           0.000000   0.000000   0.000000   NO         0         
P-BC             0.000000   0.000000   0.000000   NO         0         
P-BC-1           0.000000   0.000000   0.000000   NO         0         
P-BC-2           0.000000   0.000000   0.000000   NO         0         
P-BC-3           0.000000   0.000000   0.000000   NO         0         
P-D              0.000000   0.000000   0.000000   NO         0         
P-D-1            0.000000   0.000000   0.000000   NO         0         
P-E              0.000000   0.000000   0.000000   NO         0         
P-E-1            0.000000   0.000000   0.000000   NO         0         
P-E-2            0.000000   0.000000   0.000000   NO         0         
P-F              0.000000   0.000000   0.000000   NO         0         
P-F-1            0.000000   0.000000   0.000000   NO         0         
P-G              0.000000   0.000000   0.000000   NO         0         
P-G-1            0.000000   0.000000   0.000000   NO         0         
P-H              0.000000   0.000000   0.000000   NO         0         
P-H-1            0.000000   0.000000   0.000000   NO         0         
P-I              0.000000   0.000000   0.000000   NO         0         
P-I-1            0.000000   0.000000   0.000000   NO         0         
P-J              0.000000   0.000000   0.000000   NO         0         
P-J-1            0.000000   0.000000   0.000000   NO         0         
P-J-2            0.000000   0.000000   0.000000   NO         0         
P-K              0.000000   0.000000   0.000000   NO         0         
P-K-1            0.000000   0.000000   0.000000   NO         0         
P-K-2            0.000000   0.000000   0.000000   NO         0         
P-L              0.000000   0.000000   0.000000   NO         0         
P-L-1            0.000000   0.000000   0.000000   NO         0         
P-L-2            0.000000   0.000000   0.000000   NO         0         
P-L-3            0.000000   0.000000   0.000000   NO         0         
P-M              0.000000   0.000000   0.000000   NO         0         
P-P              0.000000   0.000000   0.000000   NO         0         
P-Q              0.000000   0.000000   0.000000   NO         0         
P-Q-1            0.000000   0.000000   0.000000   NO         0         
P-Q-2            0.000000   0.000000   0.000000   NO         0         
P-R              0.000000   0.000000   0.000000   NO         0         
P-R-1            0.000000   0.000000   0.000000   NO         0         
P-R-1-A          0.000000   0.000000   0.000000   NO         0         
P-R-2            0.000000   0.000000   0.000000   NO         0         
P-S              0.000000   0.000000   0.000000   NO         0         
P-S-1            0.000000   0.000000   0.000000   NO         0         
P-S-1-A          0.000000   0.000000   0.000000   NO         0         
P-T              0.000000   0.000000   0.000000   NO         0         
P-U              0.000000   0.000000   0.000000   NO         0         
P-U-1            0.000000   0.000000   0.000000   NO         0         
P-V              0.000000   0.000000   0.000000   NO         0         
P-V-1            0.000000   0.000000   0.000000   NO         0         
P-W              0.000000   0.000000   0.000000   NO         0         
P-W-1            0.000000   0.000000   0.000000   NO         0         
P-W-2            0.000000   0.000000   0.000000   NO         0         
P-W-3            0.000000   0.000000   0.000000   NO         0         
P-W-4            0.000000   0.000000   0.000000   NO         0         
P-W-5            0.000000   0.000000   0.000000   NO         0         
P-W-6            0.000000   0.000000   0.000000   NO         0         
P-W-7            0.000000   0.000000   0.000000   NO         0         
P-W-8            0.000000   0.000000   0.000000   NO         0         
P-XON            0.000000   0.000000   0.000000   NO         0         

[CONTROLS]


[INFLOWS]
;;Node           Constituent      Time Series      Type     Mfactor  Sfactor  Baseline Pattern
;;-------------- ---------------- ---------------- -------- -------- -------- -------- --------
AY               FLOW             ""               FLOW     1.0      1.000000         
BC               FLOW             ""               FLOW     1.0      1.000000         
XO-N             FLOW             ""               FLOW     1.0      1.000000         

[DWF]
;;Node           Constituent      Baseline   Patterns  
;;-------------- ---------------- ---------- ----------
AY               FLOW             0.000000   "PATN-1" "" ""
BC               FLOW             0.000000   "PATN-1" "" ""
D                FLOW             0.000000   "PATN-1" "" ""
E                FLOW             0.000000   "PATN-1" "" ""
F                FLOW             0.010000   "PATN-1" "" ""
G                FLOW             0.010000   "PATN-1" "" ""
H                FLOW             0.000000   "PATN-1" "" ""
I                FLOW             0.040000   "PATN-1" "" ""
J                FLOW             0.000000   "PATN-1" "" ""
K                FLOW             0.010000   "PATN-1" "" ""
L                FLOW             0.020000   "PATN-1" "" ""
M                FLOW             0.000000   "PATN-1" "" ""
P                FLOW             0.000000   "PATN-1" "" ""
Q                FLOW             0.040000   "PATN-1" "" ""
R                FLOW             0.030000   "PATN-1" "" ""
S                FLOW             0.040000   "PATN-1" "" ""
T                FLOW             0.040000   "PATN-1" "" ""
U                FLOW             0.020000   "PATN-1" "" ""
V                FLOW             0.430000   "PATN-1" "" ""
W                FLOW             0.020000   "PATN-1" "" ""
XO-N             FLOW             0.000000   "PATN-1" "" ""
WW-AY            FLOW             0.205000   "PATN-1" "" ""

[CURVES]
;;Name           Type       X-Value    Y-Value   
;;-------------- ---------- ---------- ----------
PU-AY-BLDT-CURVE PUMP2      1.000000   0.205000  
PU-AY-BLDT-CURVE            2.000000   0.205000  
PU-AY-BLDT-CURVE            3.000000   0.205000  
;
PU-AY-CURVE      PUMP2      1.000000   0.100000  
PU-AY-CURVE                 2.000000   0.150000  
PU-AY-CURVE                 3.000000   0.205000  
;
PU-BC-BLDT-CURVE PUMP2      1.000000   0.205000  
PU-BC-BLDT-CURVE            2.000000   0.205000  
PU-BC-BLDT-CURVE            3.000000   0.205000  
;
UNIFORM-STORAGE  STORAGE    0.000000   24.670000 
UNIFORM-STORAGE             10.000000  24.670000 

[PATTERNS]
;;Name           Type       Multipliers
;;-------------- ---------- -----------
; New Pattern
PATN-1           HOURLY     1.000000 1.000000 1.000000 1.000000 1.000000 1.000000
PATN-1                      1.000000 1.000000 1.000000 1.000000 1.000000 1.000000
PATN-1                      1.000000 1.000000 1.000000 1.000000 1.000000 1.000000
PATN-1                      1.000000 1.000000 1.000000 1.000000 1.000000 1.000000

[REPORT]
;;Reporting Options
INPUT      YES
CONTROLS   YES
SUBCATCHMENTS ALL
NODES ALL
LINKS ALL

[TAGS]

[MAP]
DIMENSIONS 6815620.442 2111378.045 6848701.195 2127545.289
Units      None

[COORDINATES]
;;Node           X-Coord            Y-Coord           
;;-------------- ------------------ ------------------
AY               6847197.524        2126742.129       
AY-1             6847053.690        2125768.749       
AY-2             6845302.655        2123362.584       
AY-3             6843713.580        2120381.753       