[TITLE]
Scenario Run :  BASE
Scenario Run :  BASE
Subcatchment Width is 0.7factor applied to Slope Eqn - K = 1.7 expression.

[OPTIONS]
;Option and Files Scenario Set: BASE, Base Simulation Options
FLOW_UNITS		CFS
INFILTRATION		HORTON
FLOW_ROUTING		DYNWAVE
LINK_OFFSETS		DEPTH
MIN_SLOPE		0.000000
ALLOW_PONDING		YES
SKIP_STEADY_STATE 	NO
IGNORE_RAINFALL		NO
IGNORE_SNOWMELT		YES
IGNORE_GROUNDWATER	YES
IGNORE_QUALITY		YES

START_DATE		09/01/2014
START_TIME		00:00:00
REPORT_START_DATE	09/01/2014
REPORT_START_TIME	00:00:00
END_DATE		09/07/2014
END_TIME		00:00:00
SWEEP_START		01/01
SWEEP_END		12/31
DRY_DAYS		0.000000
REPORT_STEP		00:00:30
WET_STEP		00:00:30
DRY_STEP		00:01:00
ROUTING_STEP		10

INERTIAL_DAMPING	PARTIAL
NORMAL_FLOW_LIMITED	BOTH
FORCE_MAIN_EQUATION	H-W
VARIABLE_STEP		0.500000
LENGTHENING_STEP	60
MIN_SURFAREA		12.000000
HEAD_TOLERANCE	0.010000
MINIMUM_STEP		0.5

SYS_FLOW_TOL		5
LAT_FLOW_TOL		5

[FILES]

[RAINGAGES]
10-YR	CUMULATIVE	0.050000	1.000000	TIMESERIES	10-YR-MTKA-101		
100-YR	CUMULATIVE	0.050000	1.000000	TIMESERIES	100-YR-MTKA-101		
2-YR	CUMULATIVE	0.050000	1.000000	TIMESERIES	2-YR-MTKA-101		
5-YR	CUMULATIVE	0.100000	1.000000	TIMESERIES	5-YR-MTKA-101		

[HYDROGRAPHS]

[EVAPORATION]
CONSTANT	0.000000
DRY_ONLY	NO

[TEMPERATURE]

[ADJUSTMENTS]

[SUBCATCHMENTS]
SUB-10	100-YR	871B	5.544159	17.333565	609.820153	11.837212	0.000000
SUB-110	100-YR	110	0.316722	66.382839	403.594640	6.572817	0.000000
SUB-114	100-YR	5075	0.628093	11.643811	486.562501	11.980247	0.000000
SUB-116	100-YR	5061	0.411886	12.328644	348.936497	13.081709	0.000000
SUB-118	100-YR	5434	0.531193	48.489285	217.009839	4.981310	0.000000
SUB-124	100-YR	5470	0.352861	76.717122	658.902052	8.871977	0.000000
SUB-132	100-YR	5261	0.820025	27.794890	491.926132	7.861074	0.000000
SUB-136	100-YR	5272	0.491236	38.627995	507.607707	11.907325	0.000000
SUB-138	100-YR	5278	0.714366	13.749945	614.987571	9.927001	0.000000
SUB-142	100-YR	5219	0.573909	9.598615	474.013851	11.733500	0.000000
SUB-156	100-YR	5404	0.412313	38.714459	308.939643	8.070934	0.000000
SUB-158	100-YR	5404	0.252827	35.830227	276.896894	16.642739	0.000000
SUB-16	100-YR	6012	10.138929	43.758995	1686.628145	6.730728	0.000000
SUB-160	100-YR	5403	0.081800	59.555293	207.156361	11.403428	0.000000
SUB-162	100-YR	5403	0.124445	33.523459	188.482643	10.662634	0.000000
SUB-164	100-YR	5401	1.007151	39.772410	516.593513	6.720354	0.000000
SUB-176	100-YR	5266	3.542627	15.756687	1265.895063	7.200984	0.000000
SUB-180	100-YR	5230	2.385718	23.693205	919.075649	7.375404	0.000000
SUB-186	100-YR	5204	0.177982	50.130190	235.201856	5.625551	0.000000
SUB-188	100-YR	5206	1.448065	17.917171	634.737092	10.936825	0.000000
SUB-190	100-YR	5229	0.414834	40.638845	423.869495	12.003859	0.000000
SUB-196	100-YR	5227	2.044319	23.863379	988.143720	14.158508	0.000000
SUB-198	100-YR	5232	2.924911	10.572416	852.176697	18.953403	0.000000
SUB-202	100-YR	EXC_ST	3.730706	9.036876	1015.223117	9.640983	0.000000
SUB-204	100-YR	EXC_E	0.345460	64.742903	337.481974	6.907155	0.000000
SUB-210	100-YR	5305	1.537004	33.964915	572.075125	13.556633	0.000000
SUB-212	100-YR	5305A	1.872721	20.754683	517.373837	15.083379	0.000000
SUB-214	100-YR	5304	0.409916	66.282969	484.372501	4.921618	0.000000
SUB-216	100-YR	5355	1.095843	1.669046	412.829711	18.364019	0.000000
SUB-218	100-YR	5309	1.944046	39.756021	363.212805	6.820159	0.000000
SUB-22	100-YR	5082	0.289893	79.379860	306.355264	7.960405	0.000000
SUB-24	100-YR	5436A	1.488736	73.941532	324.611342	5.520451	0.000000
SUB-26	100-YR	5452	8.822520	22.904007	1526.271133	12.350330	0.000000
SUB-264	100-YR	5059	0.243216	90.000000	656.798538	5.425460	0.000000
SUB-274	100-YR	5080	0.101604	58.449460	214.419382	10.316948	0.000000
SUB-28	100-YR	5447	3.829280	30.659626	942.936720	13.560486	0.000000
SUB-30	100-YR	5271	0.958387	44.233833	667.685698	9.229542	0.000000
; New Subcatchment
SUB-312	100-YR	5265	0.842991	0.000000	487.569444	10.222536	0.000000
SUB-314	100-YR	5242	0.290698	53.524553	660.039770	10.570768	0.000000
SUB-316	100-YR	5244	0.307240	63.744486	1092.262813	7.138901	0.000000
SUB-318	100-YR	5201	0.257837	59.630328	693.831865	6.565864	0.000000
SUB-32	100-YR	5471	0.270858	73.430279	352.056708	6.664519	0.000000
SUB-320	100-YR	5200	0.490477	36.841301	693.831865	6.515952	0.000000
SUB-322	100-YR	5245	0.718244	30.046644	527.477749	7.876482	0.000000
SUB-324	100-YR	POND2	2.096191	10.024426	657.201628	11.277847	0.000000
SUB-328	100-YR	5201A	3.715443	13.993168	956.742626	9.496300	0.000000
; New Subcatchment
SUB-330	100-YR	5203	0.127569	90.000000	465.375000	5.306226	0.000000
; New Subcatchment
SUB-332	100-YR	5262	0.259672	42.331274	363.375000	5.440994	0.000000
SUB-334	100-YR	6000	2.626957	20.000000	972.938351	9.598501	0.000000
SUB-336	100-YR	5323	0.210694	64.199611	262.360551	4.385517	0.000000
SUB-338	100-YR	5322	0.076941	89.368293	219.983306	3.809635	0.000000
SUB-34	100-YR	5060	0.547042	36.910628	635.466688	8.637835	0.000000
SUB-340	100-YR	5321	0.065698	83.842574	190.394952	4.394618	0.000000
SUB-342	100-YR	5345	0.097146	83.451298	203.291893	4.244548	0.000000
SUB-344	100-YR	5346	0.174267	63.437722	212.177246	5.732628	0.000000
SUB-346	100-YR	5320	0.060552	89.662924	185.703067	4.227978	0.000000
SUB-348	100-YR	5320	0.236001	34.366396	211.195241	5.858845	0.000000
SUB-350	100-YR	5319	0.273800	9.111596	205.222587	5.856388	0.000000
SUB-352	100-YR	5360	0.303170	52.050526	228.311678	4.792348	0.000000
SUB-354	100-YR	5319	0.050451	94.698649	165.875171	4.180080	0.000000
SUB-356	100-YR	5361	0.072183	83.366019	148.308555	4.109718	0.000000
SUB-358	100-YR	5318A	0.068662	97.756655	144.840008	2.924060	0.000000
SUB-36	100-YR	5420A	0.400774	32.803633	163.717203	9.775193	0.000000
SUB-360	100-YR	5318A	0.209357	18.051004	217.953080	9.488172	0.000000
SUB-362	100-YR	5318	0.121437	17.572634	159.128425	10.628152	0.000000
SUB-364	100-YR	5318	0.108325	99.998212	178.004525	2.164404	0.000000
SUB-366	100-YR	5350	0.118693	88.826205	178.148701	3.782678	0.000000
SUB-368	100-YR	5341	0.066625	96.890143	119.289718	3.008482	0.000000
SUB-370	100-YR	5340	0.081338	92.526517	203.475786	5.837291	0.000000
SUB-372	100-YR	5317	0.208844	71.663111	219.567146	10.351572	0.000000
SUB-374	100-YR	5384	0.261488	80.254302	215.210940	9.420173	0.000000
SUB-376	100-YR	5316	0.122567	89.313209	173.281349	6.878987	0.000000
SUB-378	100-YR	5371A	0.126593	73.005026	146.403731	5.360502	0.000000
SUB-38	100-YR	5419	1.462306	9.685916	291.460367	16.355135	0.000000
SUB-380	100-YR	5371	0.100460	79.284207	148.313152	6.831720	0.000000
SUB-382	100-YR	5383	0.060955	75.910805	118.920506	13.041278	0.000000
SUB-384	100-YR	5325	0.211300	71.478779	163.683154	4.567178	0.000000
SUB-386	100-YR	5326	0.198445	85.644209	183.405914	6.064781	0.000000
SUB-388	100-YR	5340	0.067584	95.389773	124.584023	5.418043	0.000000
SUB-390	100-YR	5339	0.211075	89.014169	248.416462	4.541152	0.000000
SUB-392	100-YR	5338	0.064665	100.000000	249.037752	7.462383	0.000000
SUB-394	100-YR	5373	0.219798	59.600287	226.400892	10.809684	0.000000
SUB-396	100-YR	5375	0.094573	72.093732	120.399301	4.449569	0.000000
SUB-398	100-YR	5303	0.043143	95.400145	90.960486	3.698164	0.000000
SUB-40	100-YR	5431	1.144388	87.934166	249.350903	4.414014	0.000000
SUB-400	100-YR	5305A	0.168591	87.313768	222.648739	3.245488	0.000000
SUB-402	100-YR	5376	0.180143	80.558474	192.502427	4.541460	0.000000
SUB-404	100-YR	5226	0.211633	82.850134	245.506551	4.864631	0.000000
SUB-406	100-YR	5227	0.137540	85.331842	208.447486	6.049893	0.000000
SUB-408	100-YR	5235	0.105277	78.301044	158.429066	24.722011	0.000000
SUB-410	100-YR	5233	0.137736	88.300948	221.134225	9.107993	0.000000
SUB-412	100-YR	5232	0.079459	82.668372	127.485666	4.909447	0.000000
SUB-414	100-YR	5247	0.112933	77.216462	160.495956	17.893825	0.000000
SUB-416	100-YR	5210	0.105218	85.703730	153.601224	5.224482	0.000000
SUB-418	100-YR	5210	0.196329	83.762584	277.000910	4.453897	0.000000
SUB-42	100-YR	5428	0.561658	52.272789	206.478770	14.083976	0.000000
SUB-420	100-YR	5248	0.278407	76.009543	370.202509	32.829879	0.000000
SUB-422	100-YR	5211	0.115387	75.378236	146.002192	5.730546	0.000000
SUB-424	100-YR	5212	0.129122	82.286989	223.399420	5.173109	0.000000
SUB-426	100-YR	5224	0.201140	59.230952	171.282963	5.159525	0.000000
SUB-428	100-YR	5213	0.112429	72.580925	162.588082	5.139922	0.000000
SUB-430	100-YR	5223	0.234647	56.852082	262.922790	14.179979	0.000000
SUB-432	100-YR	5280	0.032169	100.000000	159.717536	9.761694	0.000000
SUB-434	100-YR	5297	0.187933	72.993701	218.959268	9.709499	0.000000
SUB-436	100-YR	5213A	0.158029	90.202439	221.754068	4.236877	0.000000
SUB-438	100-YR	5214	0.283394	84.594511	301.590103	10.455897	0.000000
SUB-44	100-YR	5417	0.288308	36.518360	205.632495	15.314992	0.000000
SUB-440	100-YR	5222	0.208136	79.435512	300.652158	6.644110	0.000000
SUB-442	100-YR	5221	0.063323	88.068783	99.507648	2.688829	0.000000
SUB-444	100-YR	5216	0.260247	65.752966	212.494754	5.442431	0.000000
SUB-446	100-YR	5220	0.264786	61.346103	285.540767	6.154866	0.000000
SUB-448	100-YR	5285	0.052362	50.768231	88.296513	10.286015	0.000000
SUB-450	100-YR	5216A	0.169553	62.325110	197.231548	7.681313	0.000000
SUB-452	100-YR	5217	0.323910	88.357964	316.309905	5.571327	0.000000
SUB-454	100-YR	5285	0.359988	47.830964	310.279302	9.293181	0.000000
SUB-456	100-YR	5219	0.139310	88.099308	227.781950	4.808258	0.000000
SUB-458	100-YR	5218	0.332117	63.778366	246.566646	7.766955	0.000000
SUB-46	100-YR	OUT-WEST	0.167446	58.483713	236.661223	8.079667	0.000000
SUB-460	100-YR	5260	0.222155	89.398530	214.301671	5.324768	0.000000
SUB-462	100-YR	5263	0.115675	86.234680	174.075341	3.780282	0.000000
SUB-464	100-YR	5066	0.290699	44.786650	218.081735	8.660663	0.000000
SUB-466	100-YR	5066	0.355116	34.977966	291.443436	9.247899	0.000000
SUB-468	100-YR	5065	0.177510	65.384920	292.588844	7.158880	0.000000
SUB-470	100-YR	5064	0.144247	74.745562	249.274013	7.711001	0.000000
SUB-472	100-YR	5063	0.116217	93.510830	130.559383	5.401607	0.000000
SUB-474	100-YR	5062	0.390601	92.200329	375.943585	7.264396	0.000000
SUB-476	100-YR	5092	0.292952	80.835859	396.245070	12.446758	0.000000
SUB-478	100-YR	5061	0.295223	94.471430	340.540472	3.388581	0.000000
SUB-48	100-YR	5033	4.977095	0.003597	1384.259602	20.530806	0.000000
SUB-480	100-YR	5077	0.246806	71.335217	312.496760	13.121534	0.000000
SUB-482	100-YR	5074	0.456145	58.575835	335.635869	4.277666	0.000000
SUB-484	100-YR	5060	0.221035	98.467906	299.262603	2.952602	0.000000
SUB-486	100-YR	5058	0.307301	81.298024	343.474092	4.984365	0.000000
SUB-488	100-YR	5105	0.227535	84.376059	415.003009	4.712068	0.000000
SUB-490	100-YR	5057	0.234164	66.767122	183.138959	6.703543	0.000000
SUB-492	100-YR	5072	0.156100	80.128897	235.606918	5.455584	0.000000
SUB-494	100-YR	5054	0.715823	43.429506	436.932198	10.693055	0.000000
SUB-496	100-YR	5071	0.261405	62.417191	327.182624	9.608764	0.000000
SUB-498	100-YR	5053A	0.551097	39.678208	263.013297	21.008822	0.000000
SUB-50	100-YR	5032	0.684076	47.341267	1297.530705	18.220141	0.000000
SUB-500	100-YR	5110	0.202634	66.436461	301.401344	8.875558	0.000000
SUB-502	100-YR	5070	0.274076	62.451311	341.947094	10.717307	0.000000
SUB-504	100-YR	5052	0.132457	88.409317	197.746728	3.515204	0.000000
SUB-506	100-YR	5053	0.329458	41.918678	238.544519	19.634943	0.000000
SUB-508	100-YR	5001A	0.309368	83.106407	357.605726	5.039342	0.000000
SUB-510	100-YR	5008	0.189917	83.070323	348.310277	4.704462	0.000000
SUB-512	100-YR	5003	0.098649	0.000000	170.882377	21.574196	0.000000
SUB-514	100-YR	5002	0.087280	91.941167	134.735647	4.435134	0.000000
SUB-516	100-YR	5009	0.361402	87.203539	634.541670	5.794766	0.000000
SUB-518	100-YR	5004	0.369434	76.889753	379.167401	6.900337	0.000000
SUB-52	100-YR	POND1	1.198123	24.111537	1187.813572	14.778325	0.000000
SUB-520	100-YR	5005	0.201945	89.882365	204.181445	6.055136	0.000000
SUB-522	100-YR	5010	0.223967	81.092900	399.587249	6.733594	0.000000
SUB-524	100-YR	5006	0.524373	62.673502	364.665654	13.904121	0.000000
SUB-526	100-YR	5081	0.174778	93.660225	178.567727	4.918750	0.000000
SUB-528	100-YR	5337	0.097417	100.000000	215.427495	4.305761	0.000000
; New Subcatchment
SUB-530	100-YR	5208	0.365629	0.000000	418.359375	4.287973	0.000000
SUB-532	100-YR	5247	0.518142	10.230687	239.974650	28.214431	0.000000
SUB-534	100-YR	5248	0.813891	3.114785	403.890597	25.607685	0.000000
; New Subcatchment
SUB-536	100-YR	5275	0.262829	0.000000	205.859375	12.226342	0.000000
; New Subcatchment
SUB-538	100-YR	5056	0.434565	0.006022	298.385417	6.900613	0.000000
SUB-540	100-YR	5213A	0.534189	18.817012	366.980488	7.354467	0.000000
SUB-542	100-YR	5214	0.488782	28.150200	316.322925	12.873741	0.000000
SUB-66	100-YR	5442	1.007568	58.103840	1111.048148	5.265116	0.000000
SUB-68	100-YR	5450	1.048064	54.712276	1423.586380	9.417343	0.000000
SUB-70	100-YR	5411	0.397428	61.893481	376.326182	6.941246	0.000000
SUB-72	100-YR	5412	1.658057	29.762755	287.491615	7.824811	0.000000
SUB-74	100-YR	5415	0.926166	42.094128	390.922294	3.885050	0.000000
SUB-76	100-YR	5421	0.772764	35.566984	273.417762	14.128442	0.000000
SUB-78	100-YR	5415A	1.232813	16.672237	262.029050	9.024618	0.000000
SUB-80	100-YR	5420	0.155585	77.125015	195.399550	7.665544	0.000000
SUB-84	100-YR	5475	0.312020	25.296115	237.012776	10.145961	0.000000
SUB-86	100-YR	5424	0.314032	36.980044	163.276881	7.426397	0.000000
SUB-88	100-YR	5426	0.340884	43.349523	181.379029	5.969864	0.000000
SUB-90	100-YR	6005	1.303145	14.455133	240.386251	5.260222	0.000000

[SUBAREAS]
SUB-10	0.016000	0.024000	0.100000	0.240000	25.000000	OUTLET
SUB-110	0.016000	0.024000	0.100000	0.240000	25.000000	OUTLET
SUB-114	0.016000	0.024000	0.100000	0.240000	25.000000	OUTLET
SUB-116	0.016000	0.024000	0.100000	0.240000	25.000000	OUTLET
SUB-118	0.016000	0.024000	0.100000	0.240000	25.000000	OUTLET
SUB-124	0.016000	0.024000	0.100000	0.240000	25.000000	OUTLET
SUB-132	0.016000	0.024000	0.100000	0.240000	25.000000	OUTLET
SUB-136	0.016000	0.024000	0.100000	0.240000	25.000000	OUTLET
SUB-138	0.016000	0.024000	0.100000	0.240000	25.000000	OUTLET
SUB-142	0.016000	0.024000	0.100000	0.240000	25.000000	OUTLET
SUB-156	0.016000	0.024000	0.100000	0.240000	25.000000	OUTLET
SUB-158	0.016000	0.024000	0.100000	0.240000	25.000000	OUTLET
SUB-16	0.016000	0.024000	0.100000	0.240000	25.000000	OUTLET
SUB-160	0.016000	0.024000	0.100000	0.240000	25.000000	OUTLET
SUB-162	0.016000	0.024000	0.100000	0.240000	25.000000	OUTLET
SUB-164	0.016000	0.024000	0.100000	0.240000	25.000000	OUTLET
SUB-176	0.016000	0.024000	0.100000	0.240000	25.000000	OUTLET
SUB-180	0.016000	0.024000	0.100000	0.240000	25.000000	OUTLET
SUB-186	0.016000	0.024000	0.100000	0.240000	25.000000	OUTLET
SUB-188	0.016000	0.024000	0.100000	0.240000	25.000000	OUTLET
SUB-190	0.016000	0.024000	0.100000	0.240000	25.000000	OUTLET
SUB-196	0.016000	0.024000	0.100000	0.240000	25.000000	OUTLET
SUB-198	0.016000	0.024000	0.100000	0.240000	25.000000	OUTLET
SUB-202	0.016000	0.024000	0.100000	0.240000	25.000000	OUTLET
SUB-204	0.016000	0.024000	0.100000	0.240000	25.000000	OUTLET
SUB-210	0.016000	0.024000	0.100000	0.240000	25.000000	OUTLET
SUB-212	0.016000	0.024000	0.100000	0.240000	25.000000	OUTLET
SUB-214	0.016000	0.024000	0.100000	0.240000	25.000000	OUTLET
SUB-216	0.016000	0.024000	0.100000	0.240000	25.000000	OUTLET
SUB-218	0.016000	0.024000	0.100000	0.240000	25.000000	OUTLET
SUB-22	0.016000	0.024000	0.100000	0.240000	25.000000	OUTLET
SUB-24	0.016000	0.024000	0.100000	0.240000	25.000000	OUTLET
SUB-26	0.016000	0.024000	0.100000	0.240000	25.000000	OUTLET
SUB-264	0.016000	0.024000	0.100000	0.240000	25.000000	OUTLET
SUB-274	0.016000	0.024000	0.100000	0.240000	25.000000	OUTLET
SUB-28	0.016000	0.024000	0.100000	0.240000	25.000000	OUTLET
SUB-30	0.016000	0.024000	0.100000	0.240000	25.000000	OUTLET
SUB-312	0.016000	0.024000	0.100000	0.240000	25.000000	OUTLET
SUB-314	0.016000	0.024000	0.100000	0.240000	25.000000	OUTLET
SUB-316	0.016000	0.024000	0.100000	0.240000	25.000000	OUTLET
SUB-318	0.016000	0.024000	0.100000	0.240000	25.000000	OUTLET
SUB-32	0.016000	0.024000	0.100000	0.240000	25.000000	OUTLET
SUB-320	0.016000	0.024000	0.100000	0.240000	25.000000	OUTLET
SUB-322	0.016000	0.024000	0.100000	0.240000	25.000000	OUTLET
SUB-324	0.016000	0.024000	0.100000	0.240000	25.000000	OUTLET
SUB-328	0.016000	0.024000	0.100000	0.240000	25.000000	OUTLET
SUB-330	0.016000	0.024000	0.100000	0.240000	25.000000	OUTLET
SUB-332	0.016000	0.024000	0.100000	0.240000	25.000000	OUTLET
SUB-334	0.016000	0.024000	0.100000	0.240000	25.000000	OUTLET
SUB-336	0.016000	0.024000	0.100000	0.240000	25.000000	OUTLET
SUB-338	0.016000	0.024000	0.100000	0.240000	25.000000	OUTLET
SUB-34	0.016000	0.024000	0.100000	0.240000	25.000000	OUTLET
SUB-340	0.016000	0.024000	0.100000	0.240000	25.000000	OUTLET
SUB-342	0.016000	0.024000	0.100000	0.240000	25.000000	OUTLET
SUB-344	0.016000	0.024000	0.100000	0.240000	25.000000	OUTLET
SUB-346	0.016000	0.024000	0.100000	0.240000	25.000000	OUTLET
SUB-348	0.016000	0.024000	0.100000	0.240000	25.000000	OUTLET
SUB-350	0.016000	0.024000	0.100000	0.240000	25.000000	OUTLET
SUB-352	0.016000	0.024000	0.100000	0.240000	25.000000	OUTLET
SUB-354	0.016000	0.024000	0.100000	0.240000	25.000000	OUTLET
SUB-356	0.016000	0.024000	0.100000	0.240000	25.000000	OUTLET
SUB-358	0.016000	0.024000	0.100000	0.240000	25.000000	OUTLET
SUB-36	0.016000	0.024000	0.100000	0.240000	25.000000	OUTLET
SUB-360	0.016000	0.024000	0.100000	0.240000	25.000000	OUTLET
SUB-362	0.016000	0.024000	0.100000	0.240000	25.000000	OUTLET
SUB-364	0.016000	0.024000	0.100000	0.240000	25.000000	OUTLET
SUB-366	0.016000	0.024000	0.100000	0.240000	25.000000	OUTLET
SUB-368	0.016000	0.024000	0.100000	0.240000	25.000000	OUTLET
SUB-370	0.016000	0.024000	0.100000	0.240000	25.000000	OUTLET
SUB-372	0.016000	0.024000	0.100000	0.240000	25.000000	OUTLET
SUB-374	0.016000	0.024000	0.100000	0.240000	25.000000	OUTLET
SUB-376	0.016000	0.024000	0.100000	0.240000	25.000000	OUTLET
SUB-378	0.016000	0.024000	0.100000	0.240000	25.000000	OUTLET
SUB-38	0.016000	0.024000	0.100000	0.240000	25.000000	OUTLET
SUB-380	0.016000	0.024000	0.100000	0.240000	25.000000	OUTLET
SUB-382	0.016000	0.024000	0.100000	0.240000	25.000000	OUTLET
SUB-384	0.016000	0.024000	0.100000	0.240000	25.000000	OUTLET
SUB-386	0.016000	0.024000	0.100000	0.240000	25.000000	OUTLET
SUB-388	0.016000	0.024000	0.100000	0.240000	25.000000	OUTLET
SUB-390	0.016000	0.024000	0.100000	0.240000	25.000000	OUTLET
SUB-392	0.016000	0.024000	0.100000	0.240000	25.000000	OUTLET
SUB-394	0.016000	0.024000	0.100000	0.240000	25.000000	OUTLET
SUB-396	0.016000	0.024000	0.100000	0.240000	25.000000	OUTLET
SUB-398	0.016000	0.024000	0.100000	0.240000	25.000000	OUTLET
SUB-40	0.016000	0.024000	0.100000	0.240000	25.000000	OUTLET
SUB-400	0.016000	0.024000	0.100000	0.240000	25.000000	OUTLET
SUB-402	0.016000	0.024000	0.100000	0.240000	25.000000	OUTLET
SUB-404	0.016000	0.024000	0.100000	0.240000	25.000000	OUTLET
SUB-406	0.016000	0.024000	0.100000	0.240000	25.000000	OUTLET
SUB-408	0.016000	0.024000	0.100000	0.240000	25.000000	OUTLET
SUB-410	0.016000	0.024000	0.100000	0.240000	25.000000	OUTLET
SUB-412	0.016000	0.024000	0.100000	0.240000	25.000000	OUTLET
SUB-414	0.016000	0.024000	0.100000	0.240000	25.000000	OUTLET
SUB-416	0.016000	0.024000	0.100000	0.240000	25.000000	OUTLET
SUB-418	0.016000	0.024000	0.100000	0.240000	25.000000	OUTLET
SUB-42	0.016000	0.024000	0.100000	0.240000	25.000000	OUTLET
SUB-420	0.016000	0.024000	0.100000	0.240000	25.000000	OUTLET
SUB-422	0.016000	0.024000	0.100000	0.240000	25.000000	OUTLET
SUB-424	0.016000	0.024000	0.100000	0.240000	25.000000	OUTLET
SUB-426	0.016000	0.024000	0.100000	0.240000	25.000000	OUTLET
SUB-428	0.016000	0.024000	0.100000	0.240000	25.000000	OUTLET
SUB-430	0.016000	0.024000	0.100000	0.240000	25.000000	OUTLET
SUB-432	0.016000	0.024000	0.100000	0.240000	25.000000	OUTLET
SUB-434	0.016000	0.024000	0.100000	0.240000	25.000000	OUTLET
SUB-436	0.016000	0.024000	0.100000	0.240000	25.000000	OUTLET
SUB-438	0.016000	0.024000	0.100000	0.240000	25.000000	OUTLET
SUB-44	0.016000	0.024000	0.100000	0.240000	25.000000	OUTLET
SUB-440	0.016000	0.024000	0.100000	0.240000	25.000000	OUTLET
SUB-442	0.016000	0.024000	0.100000	0.240000	25.000000	OUTLET
SUB-444	0.016000	0.024000	0.100000	0.240000	25.000000	OUTLET
SUB-446	0.016000	0.024000	0.100000	0.240000	25.000000	OUTLET
SUB-448	0.016000	0.024000	0.100000	0.240000	25.000000	OUTLET
SUB-450	0.016000	0.024000	0.100000	0.240000	25.000000	OUTLET
SUB-452	0.016000	0.024000	0.100000	0.240000	25.000000	OUTLET
SUB-454	0.016000	0.024000	0.100000	0.240000	25.000000	OUTLET
SUB-456	0.016000	0.024000	0.100000	0.240000	25.000000	OUTLET
SUB-458	0.016000	0.024000	0.100000	0.240000	25.000000	OUTLET
SUB-46	0.016000	0.024000	0.100000	0.240000	25.000000	OUTLET
SUB-460	0.016000	0.024000	0.100000	0.240000	25.000000	OUTLET
SUB-462	0.016000	0.024000	0.100000	0.240000	25.000000	OUTLET
SUB-464	0.016000	0.024000	0.100000	0.240000	25.000000	OUTLET
SUB-466	0.016000	0.024000	0.100000	0.240000	25.000000	OUTLET
SUB-468	0.016000	0.024000	0.100000	0.240000	25.000000	OUTLET
SUB-470	0.016000	0.024000	0.100000	0.240000	25.000000	OUTLET
SUB-472	0.016000	0.024000	0.100000	0.240000	25.000000	OUTLET
SUB-474	0.016000	0.024000	0.100000	0.240000	25.000000	OUTLET
SUB-476	0.016000	0.024000	0.100000	0.240000	25.000000	OUTLET
SUB-478	0.016000	0.024000	0.100000	0.240000	25.000000	OUTLET
SUB-48	0.016000	0.024000	0.100000	0.240000	25.000000	OUTLET
SUB-480	0.016000	0.024000	0.100000	0.240000	25.000000	OUTLET
SUB-482	0.016000	0.024000	0.100000	0.240000	25.000000	OUTLET
SUB-484	0.016000	0.024000	0.100000	0.240000	25.000000	OUTLET
SUB-486	0.016000	0.024000	0.100000	0.240000	25.000000	OUTLET
SUB-488	0.016000	0.024000	0.100000	0.240000	25.000000	OUTLET
SUB-490	0.016000	0.024000	0.100000	0.240000	25.000000	OUTLET
SUB-492	0.016000	0.024000	0.100000	0.240000	25.000000	OUTLET
SUB-494	0.016000	0.024000	0.100000	0.240000	25.000000	OUTLET
SUB-496	0.016000	0.024000	0.100000	0.240000	25.000000	OUTLET
SUB-498	0.016000	0.024000	0.100000	0.240000	25.000000	OUTLET
SUB-50	0.016000	0.024000	0.100000	0.240000	25.000000	OUTLET
SUB-500	0.016000	0.024000	0.100000	0.240000	25.000000	OUTLET
SUB-502	0.016000	0.024000	0.100000	0.240000	25.000000	OUTLET
SUB-504	0.016000	0.024000	0.100000	0.240000	25.000000	OUTLET
SUB-506	0.016000	0.024000	0.100000	0.240000	25.000000	OUTLET
SUB-508	0.016000	0.024000	0.100000	0.240000	25.000000	OUTLET
SUB-510	0.016000	0.024000	0.100000	0.240000	25.000000	OUTLET
SUB-512	0.016000	0.024000	0.100000	0.240000	25.000000	OUTLET
SUB-514	0.016000	0.024000	0.100000	0.240000	25.000000	OUTLET
SUB-516	0.016000	0.024000	0.100000	0.240000	25.000000	OUTLET
SUB-518	0.016000	0.024000	0.100000	0.240000	25.000000	OUTLET
SUB-52	0.016000	0.024000	0.100000	0.240000	25.000000	OUTLET
SUB-520	0.016000	0.024000	0.100000	0.240000	25.000000	OUTLET
SUB-522	0.016000	0.024000	0.100000	0.240000	25.000000	OUTLET
SUB-524	0.016000	0.024000	0.100000	0.240000	25.000000	OUTLET
SUB-526	0.016000	0.024000	0.100000	0.240000	25.000000	OUTLET
SUB-528	0.016000	0.024000	0.100000	0.240000	25.000000	OUTLET
SUB-530	0.016000	0.024000	0.100000	0.240000	25.000000	OUTLET
SUB-532	0.016000	0.024000	0.100000	0.240000	25.000000	OUTLET
SUB-534	0.016000	0.024000	0.100000	0.240000	25.000000	OUTLET
SUB-536	0.016000	0.024000	0.100000	0.240000	25.000000	OUTLET
SUB-538	0.016000	0.024000	0.100000	0.240000	25.000000	OUTLET
SUB-540	0.016000	0.024000	0.100000	0.240000	25.000000	OUTLET
SUB-542	0.016000	0.024000	0.100000	0.240000	25.000000	OUTLET
SUB-66	0.016000	0.024000	0.100000	0.240000	25.000000	OUTLET
SUB-68	0.016000	0.024000	0.100000	0.240000	25.000000	OUTLET
SUB-70	0.016000	0.024000	0.100000	0.240000	25.000000	OUTLET
SUB-72	0.016000	0.024000	0.100000	0.240000	25.000000	OUTLET
SUB-74	0.016000	0.024000	0.100000	0.240000	25.000000	OUTLET
SUB-76	0.016000	0.024000	0.100000	0.240000	25.000000	OUTLET
SUB-78	0.016000	0.024000	0.100000	0.240000	25.000000	OUTLET
SUB-80	0.016000	0.024000	0.100000	0.240000	25.000000	OUTLET
SUB-84	0.016000	0.024000	0.100000	0.240000	25.000000	OUTLET
SUB-86	0.016000	0.024000	0.100000	0.240000	25.000000	OUTLET
SUB-88	0.016000	0.024000	0.100000	0.240000	25.000000	OUTLET
SUB-90	0.016000	0.024000	0.100000	0.240000	25.000000	OUTLET

[INFILTRATION]
SUB-10	3.000000	0.100000	0.050000	0.001000	0.000000
SUB-110	3.000000	0.100000	0.050000	0.001000	0.000000
SUB-114	3.000000	0.100000	0.050000	0.001000	0.000000
SUB-116	3.000000	0.100000	0.050000	0.001000	0.000000
SUB-118	3.000000	0.100000	0.050000	0.001000	0.000000
SUB-124	3.000000	0.100000	0.050000	0.001000	0.000000
SUB-132	3.000000	0.100000	0.050000	0.001000	0.000000
SUB-136	3.000000	0.100000	0.050000	0.001000	0.000000
SUB-138	3.000000	0.100000	0.050000	0.001000	0.000000
SUB-142	3.000000	0.100000	0.050000	0.001000	0.000000
SUB-156	3.000000	0.100000	0.050000	0.001000	0.000000
SUB-158	3.000000	0.100000	0.050000	0.001000	0.000000
SUB-16	3.000000	0.100000	0.050000	0.001000	0.000000
SUB-160	3.000000	0.100000	0.050000	0.001000	0.000000
SUB-162	3.000000	0.100000	0.050000	0.001000	0.000000
SUB-164	3.000000	0.100000	0.050000	0.001000	0.000000
SUB-176	3.000000	0.100000	0.050000	0.001000	0.000000
SUB-180	3.000000	0.100000	0.050000	0.001000	0.000000
SUB-186	3.000000	0.100000	0.050000	0.001000	0.000000
SUB-188	3.000000	0.100000	0.050000	0.001000	0.000000
SUB-190	3.000000	0.100000	0.050000	0.001000	0.000000
SUB-196	3.000000	0.100000	0.050000	0.001000	0.000000
SUB-198	3.000000	0.100000	0.050000	0.001000	0.000000
SUB-202	3.000000	0.100000	0.050000	0.001000	0.000000
SUB-204	3.000000	0.100000	0.050000	0.001000	0.000000
SUB-210	3.000000	0.100000	0.050000	0.001000	0.000000
SUB-212	3.000000	0.100000	0.050000	0.001000	0.000000
SUB-214	3.000000	0.100000	0.050000	0.001000	0.000000
SUB-216	3.000000	0.100000	0.050000	0.001000	0.000000
SUB-218	3.000000	0.100000	0.050000	0.001000	0.000000
SUB-22	3.000000	0.100000	0.050000	0.001000	0.000000
SUB-24	3.000000	0.100000	0.050000	0.001000	0.000000
SUB-26	3.000000	0.100000	0.050000	0.001000	0.000000
SUB-264	3.000000	0.100000	0.050000	0.001000	0.000000
SUB-274	3.000000	0.100000	0.050000	0.001000	0.000000
SUB-28	3.000000	0.100000	0.050000	0.001000	0.000000
SUB-30	3.000000	0.100000	0.050000	0.001000	0.000000
SUB-312	3.000000	0.100000	0.050000	0.001000	0.000000
SUB-314	3.000000	0.100000	0.050000	0.001000	0.000000
SUB-316	3.000000	0.100000	0.050000	0.001000	0.000000
SUB-318	3.000000	0.100000	0.050000	0.001000	0.000000
SUB-32	3.000000	0.100000	0.050000	0.001000	0.000000
SUB-320	3.000000	0.100000	0.050000	0.001000	0.000000
SUB-322	3.000000	0.100000	0.050000	0.001000	0.000000
SUB-324	3.000000	0.100000	0.050000	0.001000	0.000000
SUB-328	3.000000	0.100000	0.050000	0.001000	0.000000
SUB-330	3.000000	0.100000	0.050000	0.001000	0.000000
SUB-332	3.000000	0.100000	0.050000	0.001000	0.000000
SUB-334	3.000000	0.100000	0.050000	0.001000	0.000000
SUB-336	3.000000	0.100000	0.050000	0.001000	0.000000
SUB-338	3.000000	0.100000	0.050000	0.001000	0.000000
SUB-34	3.000000	0.100000	0.050000	0.001000	0.000000
SUB-340	3.000000	0.100000	0.050000	0.001000	0.000000
SUB-342	3.000000	0.100000	0.050000	0.001000	0.000000
SUB-344	3.000000	0.100000	0.050000	0.001000	0.000000
SUB-346	3.000000	0.100000	0.050000	0.001000	0.000000
SUB-348	3.000000	0.100000	0.050000	0.001000	0.000000
SUB-350	3.000000	0.100000	0.050000	0.001000	0.000000
SUB-352	3.000000	0.100000	0.050000	0.001000	0.000000
SUB-354	3.000000	0.100000	0.050000	0.001000	0.000000
SUB-356	3.000000	0.100000	0.050000	0.001000	0.000000
SUB-358	3.000000	0.100000	0.050000	0.001000	0.000000
SUB-36	3.000000	0.100000	0.050000	0.001000	0.000000
SUB-360	3.000000	0.100000	0.050000	0.001000	0.000000
SUB-362	3.000000	0.100000	0.050000	0.001000	0.000000
SUB-364	3.000000	0.100000	0.050000	0.001000	0.000000
SUB-366	3.000000	0.100000	0.050000	0.001000	0.000000
SUB-368	3.000000	0.100000	0.050000	0.001000	0.000000
SUB-370	3.000000	0.100000	0.050000	0.001000	0.000000
SUB-372	3.000000	0.100000	0.050000	0.001000	0.000000
SUB-374	3.000000	0.100000	0.050000	0.001000	0.000000
SUB-376	3.000000	0.100000	0.050000	0.001000	0.000000
SUB-378	3.000000	0.100000	0.050000	0.001000	0.000000
SUB-38	3.000000	0.100000	0.050000	0.001000	0.000000
SUB-380	3.000000	0.100000	0.050000	0.001000	0.000000
SUB-382	3.000000	0.100000	0.050000	0.001000	0.000000
SUB-384	3.000000	0.100000	0.050000	0.001000	0.000000
SUB-386	3.000000	0.100000	0.050000	0.001000	0.000000
SUB-388	3.000000	0.100000	0.050000	0.001000	0.000000
SUB-390	3.000000	0.100000	0.050000	0.001000	0.000000
SUB-392	3.000000	0.100000	0.050000	0.001000	0.000000
SUB-394	3.000000	0.100000	0.050000	0.001000	0.000000
SUB-396	3.000000	0.100000	0.050000	0.001000	0.000000
SUB-398	3.000000	0.100000	0.050000	0.001000	0.000000
SUB-40	3.000000	0.100000	0.050000	0.001000	0.000000
SUB-400	3.000000	0.100000	0.050000	0.001000	0.000000
SUB-402	3.000000	0.100000	0.050000	0.001000	0.000000
SUB-404	3.000000	0.100000	0.050000	0.001000	0.000000
SUB-406	3.000000	0.100000	0.050000	0.001000	0.000000
SUB-408	3.000000	0.100000	0.050000	0.001000	0.000000
SUB-410	3.000000	0.100000	0.050000	0.001000	0.000000
SUB-412	3.000000	0.100000	0.050000	0.001000	0.000000
SUB-414	3.000000	0.100000	0.050000	0.001000	0.000000
SUB-416	3.000000	0.100000	0.050000	0.001000	0.000000
SUB-418	3.000000	0.100000	0.050000	0.001000	0.000000
SUB-42	3.000000	0.100000	0.050000	0.001000	0.000000
SUB-420	3.000000	0.100000	0.050000	0.001000	0.000000
SUB-422	3.000000	0.100000	0.050000	0.001000	0.000000
SUB-424	3.000000	0.100000	0.050000	0.001000	0.000000
SUB-426	3.000000	0.100000	0.050000	0.001000	0.000000
SUB-428	3.000000	0.100000	0.050000	0.001000	0.000000
SUB-430	3.000000	0.100000	0.050000	0.001000	0.000000
SUB-432	3.000000	0.100000	0.050000	0.001000	0.000000
SUB-434	3.000000	0.100000	0.050000	0.001000	0.000000
SUB-436	3.000000	0.100000	0.050000	0.001000	0.000000
SUB-438	3.000000	0.100000	0.050000	0.001000	0.000000
SUB-44	3.000000	0.100000	0.050000	0.001000	0.000000
SUB-440	3.000000	0.100000	0.050000	0.001000	0.000000
SUB-442	3.000000	0.100000	0.050000	0.001000	0.000000
SUB-444	3.000000	0.100000	0.050000	0.001000	0.000000
SUB-446	3.000000	0.100000	0.050000	0.001000	0.000000
SUB-448	3.000000	0.100000	0.050000	0.001000	0.000000
SUB-450	3.000000	0.100000	0.050000	0.001000	0.000000