[TITLE]
;;Project Title/Notes

[OPTIONS]
;;Option             Value
FLOW_UNITS           GPM
INFILTRATION         HORTON
FLOW_ROUTING         DYNWAVE
LINK_OFFSETS         DEPTH
MIN_SLOPE            0
ALLOW_PONDING        NO
SKIP_STEADY_STATE    NO

START_DATE           01/01/2002
START_TIME           00:00:00
REPORT_START_DATE    01/01/2002
REPORT_START_TIME    00:00:00
END_DATE             01/01/2002
END_TIME             06:00:00
SWEEP_START          01/01
SWEEP_END            12/31
DRY_DAYS             5.000000
REPORT_STEP          00:05:00
WET_STEP             00:05:00
DRY_STEP             01:00:00
ROUTING_STEP         0:05:00 

INERTIAL_DAMPING     NONE
NORMAL_FLOW_LIMITED  BOTH
FORCE_MAIN_EQUATION  D-W
VARIABLE_STEP        0.75
LENGTHENING_STEP     1
MIN_SURFAREA         12.557
MAX_TRIALS           4
HEAD_TOLERANCE       0.005000
SYS_FLOW_TOL         5
LAT_FLOW_TOL         5
MINIMUM_STEP         0
THREADS              1

[EVAPORATION]
;;Data Source    Parameters
;;-------------- ----------------
CONSTANT         0.0
DRY_ONLY         NO

[JUNCTIONS]
;;Name           Elevation  MaxDepth   InitDepth  SurDepth   Aponded   
;;-------------- ---------- ---------- ---------- ---------- ----------
; 12489
12489            955.724000 6.276000   0.000000   0.000000   0.000000  
; 12490
12490            957.000000 5.000000   0.000000   0.000000   0.000000  
; 12491
12491            958.500000 5.495000   0.000000   0.000000   0.000000  
; 12492
12492            959.726000 4.274000   0.000000   0.000000   0.000000  
; 12493
12493            958.059000 5.941000   0.000000   0.000000   0.000000  
; 12494
12494            958.934000 5.066000   0.000000   0.000000   0.000000  
; 12889
12889            910.600000 13.000000  0.000000   0.000000   0.000000  
; 12890
12890            923.740000 14.560000  0.000000   0.000000   0.000000  
; 12891
12891            925.430000 13.070000  0.000000   0.000000   0.000000  
; 12892
12892            926.950000 11.650000  0.000000   0.000000   0.000000  
; 12893
12893            916.500000 21.900000  0.000000   0.000000   0.000000  
; 12894
12894            919.310000 18.790000  0.000000   0.000000   0.000000  
; 12895
12895            925.770000 11.830000  0.000000   0.000000   0.000000  
; 12896
12896            928.980000 10.520000  0.000000   0.000000   0.000000  
; 12897
12897            922.990000 15.210000  0.000000   0.000000   0.000000  
; 12898
12898            924.280000 14.220000  0.000000   0.000000   0.000000  
; 12899
12899            925.330000 13.470000  0.000000   0.000000   0.000000  
; 12900
12900            927.760000 12.240000  0.000000   0.000000   0.000000  
; 13289
13289            922.090000 18.810000  0.000000   0.000000   0.000000  
; 13290
13290            922.250000 20.650000  0.000000   0.000000   0.000000  
; 13291
13291            922.420000 19.080000  0.000000   0.000000   0.000000  
; 13292
13292            922.690000 19.010000  0.000000   0.000000   0.000000  
; 13293
13293            922.980000 18.720000  0.000000   0.000000   0.000000  
; 14089
14089            934.180000 6.780000   0.000000   0.000000   0.000000  
; 14090
14090            933.670000 8.250000   0.000000   0.000000   0.000000  
; 14091
14091            932.670000 8.570000   0.000000   0.000000   0.000000  
; 14092
14092            933.190000 6.540000   0.000000   0.000000   0.000000  
; 14093
14093            931.710000 8.200000   0.000000   0.000000   0.000000  
; 14094
14094            931.100000 9.540000   0.000000   0.000000   0.000000  
; 14095
14095            931.630000 8.190000   0.000000   0.000000   0.000000  
; 14096
14096            930.100000 9.680000   0.000000   0.000000   0.000000  
; 14097
14097            929.110000 9.290000   0.000000   0.000000   0.000000  
; 14098
14098            929.670000 8.650000   0.000000   0.000000   0.000000  
; 14099
14099            928.270000 5.300000   0.000000   0.000000   0.000000  
; 14100
14100            927.800000 11.430000  0.000000   0.000000   0.000000  
; 14101
14101            928.520000 9.880000   0.000000   0.000000   0.000000  
; 14102
14102            926.860000 13.620000  0.000000   0.000000   0.000000  
; 14103
14103            927.610000 11.880000  0.000000   0.000000   0.000000  
; 14104
14104            926.170000 18.460000  0.000000   0.000000   0.000000  
; 14105
14105            925.840000 18.490000  0.000000   0.000000   0.000000  
; 14106
14106            925.370000 19.140000  0.000000   0.000000   0.000000  
; 14107
14107            926.110000 17.553000  0.000000   0.000000   0.000000  
; 14108
14108            926.439000 17.711000  0.000000   0.000000   0.000000  
; 14109
14109            926.260000 13.160000  0.000000   0.000000   0.000000  
; 14110
14110            925.720000 16.970000  0.000000   0.000000   0.000000  
; 14111
14111            925.010000 17.470000  0.000000   0.000000   0.000000  
; 14113
14113            923.590000 23.250000  0.000000   0.000000   0.000000  
; 14114
14114            923.950000 21.990000  0.000000   0.000000   0.000000  
; 14115
14115            924.190000 19.430000  0.000000   0.000000   0.000000  
; 14516
14516            544.565000 394.270000 0.000000   0.000000   0.000000  
; 14517
14517            545.192000 393.295000 0.000000   0.000000   0.000000  
; 14520
14520            546.659000 383.468000 0.000000   0.000000   0.000000  
; 14522
14522            926.260000 13.893000  0.000000   0.000000   0.000000  
; 14523
14523            542.545000 396.588000 0.000000   0.000000   0.000000  
; 14916
14916            932.320000 12.290000  0.000000   0.000000   0.000000  
; 14917
14917            930.930000 14.480000  0.000000   0.000000   0.000000  
; 14918
14918            929.480000 14.630000  0.000000   0.000000   0.000000  
; 14919
14919            930.317000 13.683000  0.000000   0.000000   0.000000  
; 14920
14920            931.860000 12.140000  0.000000   0.000000   0.000000  
; 14921
14921            934.560000 9.930000   0.000000   0.000000   0.000000  
; 14922
14922            928.750000 12.830000  0.000000   0.000000   0.000000  
; 14923
14923            927.550000 15.080000  0.000000   0.000000   0.000000  
; 14924
14924            948.000000 7.000000   0.000000   0.000000   0.000000  
; 14925
14925            949.900000 8.200000   0.000000   0.000000   0.000000  
; 15324
15324            913.680000 14.520000  0.000000   0.000000   0.000000  
; 15325
15325            912.050000 14.050000  0.000000   0.000000   0.000000  
; 15326
15326            910.900000 12.500000  0.000000   0.000000   0.000000  
; 15330
15330            921.260000 28.100000  0.000000   0.000000   0.000000  
; 15331
15331            924.930000 14.370000  0.000000   0.000000   0.000000  
; 15332
15332            929.000000 9.900000   0.000000   0.000000   0.000000  
; 15333
15333            931.400000 8.900000   0.000000   0.000000   0.000000  
; 15334
15334            932.570000 8.530000   0.000000   0.000000   0.000000  
; 15335
15335            923.610000 14.990000  0.000000   0.000000   0.000000  
; 15336
15336            922.290000 16.410000  0.000000   0.000000   0.000000  
; 15337
15337            934.580000 13.620000  0.000000   0.000000   0.000000  
; 15338
15338            934.830000 15.200000  0.000000   0.000000   0.000000  
; 15339
15339            935.910000 15.370000  0.000000   0.000000   0.000000  
; 15340
15340            936.910000 11.680000  0.000000   0.000000   0.000000  
; 15341
15341            939.540000 7.890000   0.000000   0.000000   0.000000  
; 15342
15342            924.050000 26.040000  0.000000   0.000000   0.000000  
; 15343
15343            925.750000 20.230000  0.000000   0.000000   0.000000  
; 15344
15344            853.750000 4.000000   0.000000   0.000000   0.000000  
; 15345
15345            867.250000 13.050000  0.000000   0.000000   0.000000  
; 15346
15346            873.800000 10.700000  0.000000   0.000000   0.000000  
; 15347
15347            874.850000 19.850000  0.000000   0.000000   0.000000  
; 15348
15348            883.300000 13.900000  0.000000   0.000000   0.000000  
; 15349
15349            883.800000 14.200000  0.000000   0.000000   0.000000  
; 15350
15350            875.500000 16.750000  0.000000   0.000000   0.000000  
; 15351
15351            868.650000 11.550000  0.000000   0.000000   0.000000  
; 15352
15352            920.400000 15.800000  0.000000   0.000000   0.000000  
; 15353
15353            925.060000 12.140000  0.000000   0.000000   0.000000  
; 15354
15354            921.220000 12.280000  0.000000   0.000000   0.000000  
; 15355
15355            919.080000 7.220000   0.000000   0.000000   0.000000  
; 15356
15356            916.680000 12.820000  0.000000   0.000000   0.000000  
; 15357
15357            914.340000 5.410000   0.000000   0.000000   0.000000  
; 15358
15358            912.330000 10.790000  0.000000   0.000000   0.000000  
; 15359
15359            910.820000 12.320000  0.000000   0.000000   0.000000  
; 15360
15360            902.950000 20.650000  0.000000   0.000000   0.000000  
; 15361
15361            903.260000 20.190000  0.000000   0.000000   0.000000  
; 15362
15362            898.920000 16.460000  0.000000   0.000000   0.000000  
; 15363
15363            910.990000 11.320000  0.000000   0.000000   0.000000  
; 15364
15364            918.960000 10.800000  0.000000   0.000000   0.000000  
; 15365
15365            928.380000 10.530000  0.000000   0.000000   0.000000  
; 15366
15366            904.760000 14.740000  0.000000   0.000000   0.000000  
; 15367
15367            905.690000 13.100000  0.000000   0.000000   0.000000  
; 15368
15368            907.120000 13.150000  0.000000   0.000000   0.000000  
; 15369
15369            918.690000 13.670000  0.000000   0.000000   0.000000  
; 15370
15370            919.600000 14.050000  0.000000   0.000000   0.000000  
; 15371
15371            920.420000 13.620000  0.000000   0.000000   0.000000  
; 15372
15372            922.730000 10.170000  0.000000   0.000000   0.000000  
; 15373
15373            923.710000 9.300000   0.000000   0.000000   0.000000  
; 15374
15374            925.250000 5.940000   0.000000   0.000000   0.000000  
; 15375
15375            918.880000 13.560000  0.000000   0.000000   0.000000  
; 15376
15376            917.460000 14.970000  0.000000   0.000000   0.000000  
; 15377
15377            915.110000 17.400000  0.000000   0.000000   0.000000  
; 15378
15378            911.970000 8.030000   0.000000   0.000000   0.000000  
; 15382
15382            913.160000 24.450000  0.000000   0.000000   0.000000  
; 15383
15383            915.048000 27.221000  0.000000   0.000000   0.000000  
; 15779
15779            877.360000 21.760000  0.000000   0.000000   0.000000  
; 15781
15781            924.165000 14.651000  0.000000   0.000000   0.000000  
; 15782
15782            924.733000 13.267000  0.000000   0.000000   0.000000  
; 15784
15784            912.810000 24.860000  0.000000   0.000000   0.000000  
; 15785
15785            927.920000 19.580000  0.000000   0.000000   0.000000  
; 15786
15786            928.810000 17.690000  0.000000   0.000000   0.000000  
; 15787
15787            930.010000 17.790000  0.000000   0.000000   0.000000  
; 15788
15788            931.310000 16.690000  0.000000   0.000000   0.000000  
; 15789
15789            932.610000 15.390000  0.000000   0.000000   0.000000  
; 15790
15790            933.530000 14.230000  0.000000   0.000000   0.000000  
; 15791
15791            940.730000 7.200000   0.000000   0.000000   0.000000  
; 15792
15792            941.390000 6.540000   0.000000   0.000000   0.000000  
; 15793
15793            935.370000 12.630000  0.000000   0.000000   0.000000  
; 15794
15794            934.740000 12.990000  0.000000   0.000000   0.000000  
; 15795
15795            936.040000 11.660000  0.000000   0.000000   0.000000  
; 15796
15796            942.110000 5.660000   0.000000   0.000000   0.000000  
; 15797
15797            939.000000 8.000000   0.000000   0.000000   0.000000  
; 15798
15798            950.900000 8.000000   0.000000   0.000000   0.000000  
; 16188
16188            920.400000 7.600000   0.000000   0.000000   0.000000  
; 16189
16189            918.100000 8.900000   0.000000   0.000000   0.000000  
; 16190
16190            918.700000 7.300000   0.000000   0.000000   0.000000  
; 16191
16191            917.900000 6.850000   0.000000   0.000000   0.000000  
; 16192
16192            902.510000 9.490000   0.000000   0.000000   0.000000  
; 16193
16193            903.000000 5.000000   0.000000   0.000000   0.000000  
; 16194
16194            910.000000 14.500000  0.000000   0.000000   0.000000  
; 16195
16195            911.470000 11.530000  0.000000   0.000000   0.000000  
; 16196
16196            956.813000 5.187000   0.000000   0.000000   0.000000  
; 16197
16197            943.000000 13.487000  0.000000   0.000000   0.000000  
; 16198
16198            936.460000 19.540000  0.000000   0.000000   0.000000  
; 16199
16199            944.840000 16.660000  0.000000   0.000000   0.000000  
; 16996
16996            917.000000 8.250000   0.000000   0.000000   0.000000  
; 16997
16997            918.060000 6.690000   0.000000   0.000000   0.000000  
; 16998
16998            919.000000 4.750000   0.000000   0.000000   0.000000  
; 16999
16999            919.000000 6.000000   0.000000   0.000000   0.000000  
; 17000
17000            919.500000 7.250000   0.000000   0.000000   0.000000  
; 17001
17001            920.000000 6.100000   0.000000   0.000000   0.000000  
; 17002
17002            919.150000 6.350000   0.000000   0.000000   0.000000  
; 17003
17003            917.710000 7.790000   0.000000   0.000000   0.000000  
; 17004
17004            917.040000 7.960000   0.000000   0.000000   0.000000  
; 17005
17005            916.100000 8.150000   0.000000   0.000000   0.000000  
; 17006
17006            915.520000 7.580000   0.000000   0.000000   0.000000  
; 17007
17007            932.080000 14.120000  0.000000   0.000000   0.000000  
; 17008
17008            933.440000 12.060000  0.000000   0.000000   0.000000  
; 17009
17009            934.430000 11.270000  0.000000   0.000000   0.000000  
; 17010
17010            936.020000 9.580000   0.000000   0.000000   0.000000  
; 17011
17011            932.160000 10.310000  0.000000   0.000000   0.000000  
; 17012
17012            933.450000 11.640000  0.000000   0.000000   0.000000  
; 17013
17013            934.780000 10.830000  0.000000   0.000000   0.000000  
; 17014
17014            931.830000 11.960000  0.000000   0.000000   0.000000  
; 17015
17015            932.760000 11.720000  0.000000   0.000000   0.000000  
; 17016
17016            933.250000 11.680000  0.000000   0.000000   0.000000  
; 17017
17017            933.800000 10.710000  0.000000   0.000000   0.000000  
; 17018
17018            934.910000 10.190000  0.000000   0.000000   0.000000  
; 17019
17019            936.050000 9.050000   0.000000   0.000000   0.000000  
; 17020
17020            934.500000 9.400000   0.000000   0.000000   0.000000  
; 17021
17021            931.970000 12.230000  0.000000   0.000000   0.000000  
; 17023
17023            932.910000 11.590000  0.000000   0.000000   0.000000  
; 17024
17024            933.610000 11.790000  0.000000   0.000000   0.000000  
; 17025
17025            951.900000 15.110000  0.000000   0.000000   0.000000  
; 17026
17026            953.820000 15.360000  0.000000   0.000000   0.000000  
; 17027
17027            954.920000 14.070000  0.000000   0.000000   0.000000  
; 17407
17407            938.610000 14.000000  0.000000   0.000000   0.000000  
; 17408
17408            938.710000 13.150000  0.000000   0.000000   0.000000  
; 17409
17409            938.890000 13.680000  0.000000   0.000000   0.000000  
; 17410
17410            939.140000 13.390000  0.000000   0.000000   0.000000  
; 17411
17411            939.500000 13.190000  0.000000   0.000000   0.000000  
; 17412
17412            941.400000 10.990000  0.000000   0.000000   0.000000  
; 17413
17413            942.090000 10.020000  0.000000   0.000000   0.000000  
; 17414
17414            942.540000 10.400000  0.000000   0.000000   0.000000  
; 17415
17415            942.150000 10.410000  0.000000   0.000000   0.000000  
; 17807
17807            959.340000 10.700000  0.000000   0.000000   0.000000  
; 17808
17808            958.900000 10.700000  0.000000   0.000000   0.000000  
; 17809
17809            958.230000 11.770000  0.000000   0.000000   0.000000  
; 17810
17810            957.110000 12.610000  0.000000   0.000000   0.000000  
; 17811
17811            956.350000 12.770000  0.000000   0.000000   0.000000  
; 17812
17812            955.390000 13.380000  0.000000   0.000000   0.000000  
; 17814
17814            959.310000 11.820000  0.000000   0.000000   0.000000  
; 17815
17815            960.560000 13.480000  0.000000   0.000000   0.000000  
; 17816
17816            928.200000 12.330000  0.000000   0.000000   0.000000  
; 17817
17817            924.330000 20.350000  0.000000   0.000000   0.000000  
; 17818
17818            926.201000 17.799000  0.000000   0.000000   0.000000  
; 17819
17819            927.402000 16.598000  0.000000   0.000000   0.000000  
; 17820
17820            928.473000 15.527000  0.000000   0.000000   0.000000  
; 17821
17821            930.456000 13.544000  0.000000   0.000000   0.000000  
; 17822
17822            931.578000 12.422000  0.000000   0.000000   0.000000  
; 19016
19016            929.833000 12.167000  0.000000   0.000000   0.000000  
; 19017
19017            930.110000 6.811000   0.000000   0.000000   0.000000  
; 19018
19018            930.895000 7.525000   0.000000   0.000000   0.000000  
; 19019
19019            931.371000 8.629000   0.000000   0.000000   0.000000  
; 19020
19020            931.544000 8.456000   0.000000   0.000000   0.000000  
; 19021
19021            911.410000 24.890000  0.000000   0.000000   0.000000  
; 19022
19022            911.110000 25.290000  0.000000   0.000000   0.000000  
; 19023
19023            912.100000 23.900000  0.000000   0.000000   0.000000  
; 19024
19024            922.220000 14.280000  0.000000   0.000000   0.000000  
; 19025
19025            925.430000 11.370000  0.000000   0.000000   0.000000  
; 19421
19421            931.690000 16.050000  0.000000   0.000000   0.000000  
; 19422
19422            934.400000 11.400000  0.000000   0.000000   0.000000  
; 19423
19423            933.640000 15.460000  0.000000   0.000000   0.000000  
; 19424
19424            934.350000 14.050000  0.000000   0.000000   0.000000  
; 19425
19425            935.880000 10.420000  0.000000   0.000000   0.000000  
; 20621
20621            859.500000 10.500000  0.000000   0.000000   0.000000  
; 20622
20622            879.000000 13.000000  0.000000   0.000000   0.000000  
; 20623
20623            906.000000 13.500000  0.000000   0.000000   0.000000  
; 20624
20624            908.500000 22.500000  0.000000   0.000000   0.000000  
; 20625
20625            910.000000 12.500000  0.000000   0.000000   0.000000  
; 21021
21021            891.500000 19.500000  0.000000   0.000000   0.000000  
; 21022
21022            931.020000 10.650000  0.000000   0.000000   0.000000  
; 21023
21023            930.280000 10.700000  0.000000   0.000000   0.000000  
; 21024
21024            929.060000 12.670000  0.000000   0.000000   0.000000  
; 21025
21025            929.700000 11.760000  0.000000   0.000000   0.000000  
; 21026
21026            930.360000 10.900000  0.000000   0.000000   0.000000  
; 21027
21027            930.910000 10.940000  0.000000   0.000000   0.000000  
; 21028
21028            944.000000 24.500000  0.000000   0.000000   0.000000  
; 21029
21029            957.880000 11.020000  0.000000   0.000000   0.000000  
; 21030
21030            956.950000 12.750000  0.000000   0.000000   0.000000  
; 21031
21031            956.330000 13.070000  0.000000   0.000000   0.000000  
; 21032
21032            952.590000 15.110000  0.000000   0.000000   0.000000  
; 21033
21033            952.140000 14.960000  0.000000   0.000000   0.000000  
; 21034
21034            950.930000 13.370000  0.000000   0.000000   0.000000  
; 21035
21035            949.590000 14.110000  0.000000   0.000000   0.000000  
; 21036
21036            948.990000 14.410000  0.000000   0.000000   0.000000  
; 21037
21037            948.110000 13.190000  0.000000   0.000000   0.000000  
; 21038
21038            951.860000 10.040000  0.000000   0.000000   0.000000  
; 21039
21039            952.920000 14.480000  0.000000   0.000000   0.000000  
; 21040
21040            954.340000 10.460000  0.000000   0.000000   0.000000  
; 21041
21041            936.650000 11.680000  0.000000   0.000000   0.000000  
; 21441
21441            936.500000 16.600000  0.000000   0.000000   0.000000  
; 21442
21442            936.940000 15.560000  0.000000   0.000000   0.000000  
; 21443
21443            937.740000 13.860000  0.000000   0.000000   0.000000  
; 21444
21444            939.610000 13.790000  0.000000   0.000000   0.000000  
; 21445
21445            941.350000 10.950000  0.000000   0.000000   0.000000  
; 21446
21446            935.230000 14.440000  0.000000   0.000000   0.000000  
; 21447
21447            936.460000 13.970000  0.000000   0.000000   0.000000  
; 21448
21448            939.780000 7.980000   0.000000   0.000000   0.000000  
; 21449
21449            937.700000 10.740000  0.000000   0.000000   0.000000  
; 21841
21841            945.393000 13.807000  0.000000   0.000000   0.000000  
; 21842
21842            946.109000 8.721000   0.000000   0.000000   0.000000  
; 21843
21843            947.305000 9.076000   0.000000   0.000000   0.000000  
; 22241
22241            928.510000 17.370000  0.000000   0.000000   0.000000  
; 22242
22242            929.610000 15.790000  0.000000   0.000000   0.000000  
; 22243
22243            938.100000 6.130000   0.000000   0.000000   0.000000  
; 22244
22244            939.630000 4.600000   0.000000   0.000000   0.000000  
; 22641
22641            929.570000 12.430000  0.000000   0.000000   0.000000  
; 23042
23042            918.540000 9.460000   0.000000   0.000000   0.000000  
; 23043
23043            911.030000 25.270000  0.000000   0.000000   0.000000  
; 23044
23044            912.700000 22.000000  0.000000   0.000000   0.000000  
; 23443
23443            934.810000 15.120000  0.000000   0.000000   0.000000  
; 23445
23445            943.070000 24.290000  0.000000   0.000000   0.000000  
; 23446
23446            913.170000 21.530000  0.000000   0.000000   0.000000  
; 23848
23848            920.530000 31.700000  0.000000   0.000000   0.000000  
; 23849
23849            921.680000 31.370000  0.000000   0.000000   0.000000  
; 23850
23850            838.920000 7.380000   0.000000   0.000000   0.000000  
; 24250
24250            903.150000 10.050000  0.000000   0.000000   0.000000  
; 24251
24251            914.290000 8.100000   0.000000   0.000000   0.000000  
; 24252
24252            913.340000 7.500000   0.000000   0.000000   0.000000  
; 24253
24253            906.900000 11.450000  0.000000   0.000000   0.000000  
; 24254
24254            906.080000 14.850000  0.000000   0.000000   0.000000  
; 24255
24255            905.690000 14.200000  0.000000   0.000000   0.000000  
; 24256
24256            904.140000 13.200000  0.000000   0.000000   0.000000  
; 24650
24650            882.530000 8.220000   0.000000   0.000000   0.000000  
; 24651
24651            934.000000 9.250000   0.000000   0.000000   0.000000  
; 25051
25051            933.200000 9.541000   0.000000   0.000000   0.000000  
; 25451
25451            951.000000 11.000000  0.000000   0.000000   0.000000  
; 25452
25452            951.000000 9.000000   0.000000   0.000000   0.000000  
; 25851
25851            859.780000 14.196000  0.000000   0.000000   0.000000  
; 25852
25852            861.689000 13.441000  0.000000   0.000000   0.000000  
; 25853
25853            862.307000 11.693000  0.000000   0.000000   0.000000  
; 26251
26251            934.500000 13.500000  0.000000   0.000000   0.000000  
; 26252
26252            936.270000 11.730000  0.000000   0.000000   0.000000  
; 26651
26651            928.840000 14.070000  0.000000   0.000000   0.000000  
; 26652
26652            930.660000 13.170000  0.000000   0.000000   0.000000  
; 26653
26653            931.320000 11.200000  0.000000   0.000000   0.000000  
; 27051
27051            864.368000 15.591000  0.000000   0.000000   0.000000  
; 27052
27052            863.536000 10.464000  0.000000   0.000000   0.000000  
; 27451
27451            864.682000 13.329000  0.000000   0.000000   0.000000  
; 27452
27452            865.272000 9.887000   0.000000   0.000000   0.000000  
; 27453
27453            917.500000 18.100000  0.000000   0.000000   0.000000  
; 27454
27454            918.330000 18.250000  0.000000   0.000000   0.000000  
; 27455
27455            919.180000 15.900000  0.000000   0.000000   0.000000  
; 27456
27456            919.730000 15.550000  0.000000   0.000000   0.000000  
; 27457
27457            919.820000 15.200000  0.000000   0.000000   0.000000  
; 27458
27458            920.082000 22.730000  0.000000   0.000000   0.000000  
; 27459
27459            920.183000 19.817000  0.000000   0.000000   0.000000  
; 27460
27460            920.458000 19.542000  0.000000   0.000000   0.000000  
; 27461
27461            920.656000 19.344000  0.000000   0.000000   0.000000  
; 27462
27462            920.605000 19.395000  0.000000   0.000000   0.000000  
; 27463
27463            920.706000 19.294000  0.000000   0.000000   0.000000  
; 27464
27464            920.823000 19.177000  0.000000   0.000000   0.000000  
; 27465
27465            920.916000 19.084000  0.000000   0.000000   0.000000  
; 27466
27466            928.610000 11.390000  0.000000   0.000000   0.000000  
; 27467
27467            929.511000 10.990000  0.000000   0.000000   0.000000  
; 27468
27468            929.855000 11.888000  0.000000   0.000000   0.000000  
; 27469
27469            931.038000 8.962000   0.000000   0.000000   0.000000  
; 2942
2942             927.450000 16.730000  0.000000   0.000000   0.000000  
; 2943
2943             929.200000 12.150000  0.000000   0.000000   0.000000  
; 2944
2944             929.650000 12.090000  0.000000   0.000000   0.000000  
; 2945
2945             930.590000 11.200000  0.000000   0.000000   0.000000  
; 2946
2946             931.140000 11.060000  0.000000   0.000000   0.000000  
; 2947
2947             915.060000 26.680000  0.000000   0.000000   0.000000  
; 2948
2948             916.010000 25.760000  0.000000   0.000000   0.000000  
; 2949
2949             917.000000 25.070000  0.000000   0.000000   0.000000  
; 2950
2950             917.770000 25.370000  0.000000   0.000000   0.000000  
; 2951
2951             918.580000 24.050000  0.000000   0.000000   0.000000  
; 2952
2952             919.410000 21.960000  0.000000   0.000000   0.000000  
; 2953
2953             920.020000 21.990000  0.000000   0.000000   0.000000  
; 2954
2954             920.440000 21.620000  0.000000   0.000000   0.000000  
; 2955
2955             921.140000 20.860000  0.000000   0.000000   0.000000  
; 2956
2956             929.800000 13.750000  0.000000   0.000000   0.000000  
; 2957
2957             930.390000 12.900000  0.000000   0.000000   0.000000  
; 2958
2958             931.500000 10.700000  0.000000   0.000000   0.000000  
; 2959
2959             933.190000 10.400000  0.000000   0.000000   0.000000  
; 2960
2960             932.700000 10.760000  0.000000   0.000000   0.000000  
; 2961
2961             930.560000 12.020000  0.000000   0.000000   0.000000  
; 2962
2962             932.380000 11.200000  0.000000   0.000000   0.000000  
; 2963
2963             922.100000 20.210000  0.000000   0.000000   0.000000  
; 2964
2964             922.760000 19.800000  0.000000   0.000000   0.000000  
; 2965
2965             923.310000 19.540000  0.000000   0.000000   0.000000  
; 2966
2966             924.920000 17.270000  0.000000   0.000000   0.000000  
; 2967
2967             925.480000 16.800000  0.000000   0.000000   0.000000  
; 2968
2968             926.290000 17.110000  0.000000   0.000000   0.000000  
; 2969
2969             928.140000 13.260000  0.000000   0.000000   0.000000  
; 2970
2970             922.190000 21.120000  0.000000   0.000000   0.000000  
; 2971
2971             923.310000 21.020000  0.000000   0.000000   0.000000  
; 2972
2972             925.480000 18.110000  0.000000   0.000000   0.000000  
; 2973
2973             927.390000 15.160000  0.000000   0.000000   0.000000  
; 2974
2974             928.660000 14.340000  0.000000   0.000000   0.000000  
; 2975
2975             928.820000 15.070000  0.000000   0.000000   0.000000  
; 2976
2976             929.870000 14.080000  0.000000   0.000000   0.000000  
; 2977
2977             930.150000 14.320000  0.000000   0.000000   0.000000  
; 2978
2978             932.390000 11.850000  0.000000   0.000000   0.000000  
; 2979
2979             933.680000 11.260000  0.000000   0.000000   0.000000  
; 2980
2980             936.180000 9.050000   0.000000   0.000000   0.000000  
; 2981
2981             931.230000 13.090000  0.000000   0.000000   0.000000  
; 2982
2982             932.590000 12.760000  0.000000   0.000000   0.000000  
; 2983
2983             934.050000 9.710000   0.000000   0.000000   0.000000  
; 2984
2984             934.520000 9.750000   0.000000   0.000000   0.000000  
; 2985
2985             914.640000 26.630000  0.000000   0.000000   0.000000  
; 2986
2986             914.180000 23.470000  0.000000   0.000000   0.000000  
; 2987
2987             913.800000 27.270000  0.000000   0.000000   0.000000  
; 2988
2988             913.460000 22.870000  0.000000   0.000000   0.000000  
; 2989
2989             916.900000 24.900000  0.000000   0.000000   0.000000  
; 2990
2990             926.780000 16.920000  0.000000   0.000000   0.000000  
; 2991