[TITLE]
;;Project Title/Notes

[OPTIONS]
;;Option             Value
FLOW_UNITS           MGD
INFILTRATION         HORTON
FLOW_ROUTING         KINWAVE
LINK_OFFSETS         DEPTH
MIN_SLOPE            0
ALLOW_PONDING        YES
SKIP_STEADY_STATE    NO

START_DATE           12/21/2018
START_TIME           00:00:00
REPORT_START_DATE    12/21/2018
REPORT_START_TIME    00:00:00
END_DATE             12/21/2018
END_TIME             00:00:00
SWEEP_START          1/1
SWEEP_END            12/31
DRY_DAYS             0
REPORT_STEP          00:15:00
WET_STEP             00:05:00
DRY_STEP             01:00:00
ROUTING_STEP         0:00:30 

INERTIAL_DAMPING     PARTIAL
NORMAL_FLOW_LIMITED  BOTH
FORCE_MAIN_EQUATION  H-W
VARIABLE_STEP        0.75
LENGTHENING_STEP     0
MIN_SURFAREA         0
MAX_TRIALS           0
HEAD_TOLERANCE       0
SYS_FLOW_TOL         5
LAT_FLOW_TOL         5
MINIMUM_STEP         0.5
THREADS              1

[EVAPORATION]
;;Data Source    Parameters
;;-------------- ----------------
CONSTANT         0.0
DRY_ONLY         NO

[RAINGAGES]
;;Name           Format    Interval SCF      Source    
;;-------------- --------- ------ ------ ----------
1                INTENSITY 1:00     1.0      TIMESERIES MyStorm         

[SUBCATCHMENTS]
;;Name           Rain Gage        Outlet           Area     %Imperv  Width    %Slope   CurbLen  SnowPack        
;;-------------- ---------------- ---------------- -------- -------- -------- -------- -------- ----------------
; Name Raingage Outlet Area %Imperv Width Slope Clength
114022           1                114022           0.021712 42.857143 92.744098 10.000000 0.000000                 
174919           1                174919           0.021712 42.857143 92.744098 8.300000 0.000000                 
174920           1                174920           0.021712 42.857143 92.744098 1.000000 0.000000                 
174921           1                174921           0.021712 42.857143 92.744098 0.400000 0.000000                 
174922           1                174922           0.021712 42.857143 92.744098 1.500000 0.000000                 
174923           1                174923           0.021712 42.857143 92.744098 0.800000 0.000000                 
174924           1                174924           0.021712 42.857143 92.744098 0.200000 0.000000                 
174925           1                174925           0.021712 42.857143 92.744098 0.400000 0.000000                 
174926           1                174926           0.021712 42.857143 92.744098 0.000000 0.000000                 
174927           1                174927           0.021712 42.857143 92.744098 0.300000 0.000000                 
174928           1                174928           0.021712 42.857143 92.744098 0.200000 0.000000                 
174929           1                174929           0.021712 42.857143 92.744098 0.000000 0.000000                 
174930           1                174930           0.021712 42.857143 92.744098 0.100000 0.000000                 
174931           1                174931           0.021712 42.857143 92.744098 1.000000 0.000000                 
174932           1                174932           0.021712 42.857143 92.744098 0.100000 0.000000                 
174933           1                174933           0.021712 42.857143 92.744098 1.700000 0.000000                 
174934           1                174934           0.021712 42.857143 92.744098 0.900000 0.000000                 
174935           1                174935           0.021712 42.857143 92.744098 3.400000 0.000000                 
174936           1                174936           0.021712 42.857143 92.744098 0.200000 0.000000                 
174937           1                174937           0.021712 42.857143 92.744098 0.200000 0.000000                 
174938           1                174938           0.021712 42.857143 92.744098 0.400000 0.000000                 
174939           1                174939           0.021712 42.857143 92.744098 0.200000 0.000000                 
174954           1                174954           0.021712 42.857143 92.744098 0.000000 0.000000                 
BV101            1                BV101            0.021712 42.857143 92.744098 5.200000 0.000000                 
FIT-10339        1                FIT-10339        0.020959 50.000000 120.543202 0.000000 0.000000                 
FIT-11493        1                FIT-11493        0.047108 50.000000 120.479159 0.600000 0.000000                 
FIT-11729        1                FIT-11729        0.124599 50.000000 207.824116 0.000000 0.000000                 
FIT-12205        1                FIT-12205        0.014553 42.857143 107.381176 1.100000 0.000000                 
FIT-12210        1                FIT-12210        0.014553 42.857143 107.381176 1.500000 0.000000                 
FIT-12211        1                FIT-12211        0.014553 42.857143 107.381176 0.000000 0.000000                 
FIT-12232        1                FIT-12232        0.014553 42.857143 107.381176 0.300000 0.000000                 
FIT-12258        1                FIT-12258        0.014553 42.857143 107.381176 3.000000 0.000000                 
FIT-185          1                FIT-185          0.021712 42.857143 92.744098 9.500000 0.000000                 
FIT-189          1                FIT-189          0.021712 42.857143 92.744098 1.100000 0.000000                 
FIT-2            1                FIT-2            0.051729 34.782609 111.686672 0.100000 0.000000                 
FIT-200          1                FIT-200          0.021712 42.857143 92.744098 1.400000 0.000000                 
FIT-201          1                FIT-201          0.021712 42.857143 92.744098 1.400000 0.000000                 
FIT-202          1                FIT-202          0.021712 42.857143 92.744098 0.000000 0.000000                 
FIT-203          1                FIT-203          0.021712 42.857143 92.744098 0.000000 0.000000                 
FIT-204          1                FIT-204          0.021712 42.857143 92.744098 0.000000 0.000000                 
FIT-205          1                FIT-205          0.021712 42.857143 92.744098 0.000000 0.000000                 
FIT-206          1                FIT-206          0.021712 42.857143 92.744098 0.000000 0.000000                 
FIT-207          1                FIT-207          0.021712 42.857143 92.744098 0.000000 0.000000                 
FIT-2281         1                FIT-2281         0.051729 34.782609 111.686672 0.800000 0.000000                 
FIT-2282         1                FIT-2282         0.051729 34.782609 111.686672 0.000000 0.000000                 
FIT-2695         1                FIT-2695         0.051729 34.782609 111.686672 0.200000 0.000000                 
FIT-2710         1                FIT-2710         0.051729 34.782609 111.686672 0.400000 0.000000                 
FIT-2711         1                FIT-2711         0.051729 34.782609 111.686672 0.100000 0.000000                 
FIT-6240         1                FIT-6240         0.056596 46.666667 144.658893 0.800000 0.000000                 
FIT-6241         1                FIT-6241         0.056596 46.666667 144.658893 0.500000 0.000000                 
FIT-6356         1                FIT-6356         0.056596 46.666667 144.658893 0.900000 0.000000                 
FIT-6840         1                FIT-6840         0.020959 50.000000 120.543202 0.000000 0.000000                 
FIT-7504         1                FIT-7504         0.047108 50.000000 120.479159 0.000000 0.000000                 
FIT-8009         1                FIT-8009         0.056596 46.666667 144.658893 1.200000 0.000000                 
FIT-8010         1                FIT-8010         0.056596 46.666667 144.658893 0.600000 0.000000                 
LS-10435         1                LS-10435         0.014553 42.857143 107.381176 0.000000 0.000000                 
LS-1512          1                LS-1512          0.044416 34.782609 103.491779 0.000000 0.000000                 
LS-211           1                LS-211           0.000000 0.000000 0.000000 0.000000 0.000000                 
LS-3424          1                LS-3424          0.014553 42.857143 107.381176 0.000000 0.000000                 
LS-5232          1                LS-5232          0.020959 50.000000 120.543202 0.000000 0.000000                 
LS-5273          1                LS-5273          0.124599 50.000000 207.824116 0.000000 0.000000                 
LS-6259          1                LS-6259          0.056596 46.666667 144.658893 0.000000 0.000000                 
LS-6268          1                LS-6268          0.056596 46.666667 144.658893 0.000000 0.000000                 
LS-6839          1                LS-6839          0.020959 50.000000 120.543202 0.000000 0.000000                 
LS-8007          1                LS-8007          0.056596 46.666667 144.658893 0.000000 0.000000                 
MH-1             1                MH-1             0.051729 34.782609 111.686672 0.400000 0.000000                 
MH-10106         1                MH-10106         1.245106 46.666667 678.510352 5.111690 0.000000                 
MH-10109         1                MH-10109         0.001146 34.782609 16.623293 0.400000 0.000000                 
MH-10111         1                MH-10111         0.001146 34.782609 16.623293 0.200000 0.000000                 
MH-10112         1                MH-10112         0.001146 34.782609 16.623293 1.300000 0.000000                 
MH-10113         1                MH-10113         0.001146 34.782609 16.623293 1.000000 0.000000                 
MH-10114         1                MH-10114         0.003438 34.782609 28.792388 1.778635 0.000000                 
MH-10115         1                MH-10115         0.001146 34.782609 16.623293 1.917211 0.000000                 
MH-10116         1                MH-10116         0.001146 34.782609 16.623293 1.400000 0.000000                 
MH-10117         1                MH-10117         0.003438 34.782609 28.792388 0.600000 0.000000                 
MH-10118         1                MH-10118         0.001146 34.782609 16.623293 1.489102 0.000000                 
MH-10119         1                MH-10119         0.001146 34.782609 16.623293 1.065592 0.000000                 
MH-10120         1                MH-10120         0.001146 34.782609 16.623293 1.100000 0.000000                 
MH-10121         1                MH-10121         0.001146 34.782609 16.623293 5.200000 0.000000                 
MH-10131         1                MH-10131         0.125756 50.000000 295.269338 4.609259 0.000000                 
MH-10189         1                MH-10189         0.002292 34.782609 23.508887 0.136022 0.000000                 
MH-10345         1                MH-10345         0.565957 46.666667 457.451586 1.668172 0.000000                 
MH-10399         1                MH-10399         0.188434 50.000000 240.958318 7.879688 0.000000                 
MH-10414         1                MH-10414         0.879390 34.782609 460.495945 1.645629 0.000000                 
MH-10432         1                MH-10432         0.103458 34.782609 157.948806 2.000000 0.000000                 
MH-10437         1                MH-10437         0.014553 42.857143 107.381176 2.600000 0.000000                 
MH-10438         1                MH-10438         0.014553 42.857143 107.381176 7.200000 0.000000                 
MH-10441         1                MH-10441         0.058213 42.857143 214.762351 4.002012 0.000000                 
MH-10564         1                MH-10564         0.155186 34.782609 193.446990 0.735571 0.000000                 
MH-10579         1                MH-10579         0.310373 34.782609 273.575357 0.743313 0.000000                 
MH-10581         1                MH-10581         0.258644 34.782609 249.738990 3.090229 0.000000                 
MH-10582         1                MH-10582         0.413831 34.782609 315.897612 2.707995 0.000000                 
MH-10583         1                MH-10583         0.310373 34.782609 273.575357 0.248737 0.000000                 
MH-10584         1                MH-10584         0.051729 34.782609 111.686672 0.100000 0.000000                 
MH-10585         1                MH-10585         0.051729 34.782609 111.686672 0.489716 0.000000                 
MH-10586         1                MH-10586         0.206915 34.782609 223.373344 0.041431 0.000000                 
MH-10587         1                MH-10587         0.051729 34.782609 111.686672 1.100000 0.000000                 
MH-10588         1                MH-10588         0.051729 34.782609 111.686672 2.300000 0.000000                 
MH-10617         1                MH-10617         0.879390 34.782609 460.495945 1.359508 0.000000                 
MH-10618         1                MH-10618         0.051729 34.782609 111.686672 1.600000 0.000000                 
MH-10623         1                MH-10623         0.206915 34.782609 223.373344 1.119835 0.000000                 
MH-10624         1                MH-10624         0.620746 34.782609 386.893980 1.941082 0.000000                 
MH-10625         1                MH-10625         0.051729 34.782609 111.686672 3.964321 0.000000                 
MH-10643         1                MH-10643         0.051729 34.782609 111.686672 0.600000 0.000000                 
MH-10644         1                MH-10644         0.051729 34.782609 111.686672 1.497849 0.000000                 
MH-10645         1                MH-10645         0.051729 34.782609 111.686672 108.000000 0.000000                 
MH-10699         1                MH-10699         0.668976 34.782609 401.643182 0.769494 0.000000                 
MH-10700         1                MH-10700         1.806236 34.782609 659.967092 0.358851 0.000000                 
MH-10701         1                MH-10701         0.033449 34.782609 89.810146 0.800000 0.000000                 
MH-10702         1                MH-10702         0.133795 34.782609 179.620291 0.584074 0.000000                 
MH-10703         1                MH-10703         0.033449 34.782609 89.810146 0.200000 0.000000                 
MH-10704         1                MH-10704         0.033449 34.782609 89.810146 2.500000 0.000000                 
MH-10712         1                MH-10712         0.033449 34.782609 89.810146 0.716832 0.000000                 
MH-10713         1                MH-10713         0.033449 34.782609 89.810146 0.534815 0.000000                 
MH-10714         1                MH-10714         0.033449 34.782609 89.810146 2.920901 0.000000                 
MH-10715         1                MH-10715         0.033449 34.782609 89.810146 1.184015 0.000000                 
MH-10716         1                MH-10716         0.033449 34.782609 89.810146 0.942857 0.000000                 
MH-10717         1                MH-10717         0.033449 34.782609 89.810146 0.824413 0.000000                 
MH-10718         1                MH-10718         0.434835 34.782609 323.815085 1.012328 0.000000                 
MH-10719         1                MH-10719         0.033449 34.782609 89.810146 6.000000 0.000000                 
MH-10743         1                MH-10743         0.033449 34.782609 89.810146 2.000000 0.000000                 
MH-10759         1                MH-10759         0.103458 34.782609 157.948806 0.200000 0.000000                 
MH-10761         1                MH-10761         0.051729 34.782609 111.686672 1.200000 0.000000                 
MH-10762         1                MH-10762         0.103458 34.782609 157.948806 1.304217 0.000000                 
MH-10781         1                MH-10781         0.051729 34.782609 111.686672 1.921081 0.000000                 
MH-10784         1                MH-10784         0.103458 34.782609 157.948806 0.867767 0.000000                 
MH-10788         1                MH-10788         0.047108 50.000000 120.479159 12.300000 0.000000                 
MH-10790         1                MH-10790         0.047108 50.000000 120.479159 2.600000 0.000000                 
MH-10791         1                MH-10791         0.047108 50.000000 120.479159 0.000000 0.000000                 
MH-10792         1                MH-10792         0.047108 50.000000 120.479159 0.000000 0.000000                 
MH-10793         1                MH-10793         0.047108 50.000000 120.479159 0.000000 0.000000                 
MH-10794         1                MH-10794         0.094217 50.000000 170.383260 5.100000 0.000000                 
MH-10795         1                MH-10795         0.047108 50.000000 120.479159 4.400000 0.000000                 
MH-10796         1                MH-10796         0.047108 50.000000 120.479159 1.200000 0.000000                 
MH-10797         1                MH-10797         0.895060 50.000000 525.156478 0.511960 0.000000                 
MH-10798         1                MH-10798         2.261203 50.000000 834.704097 0.961033 0.000000                 
MH-10801         1                MH-10801         0.047108 50.000000 120.479159 2.700000 0.000000                 
MH-10820         1                MH-10820         0.047108 50.000000 120.479159 9.579234 0.000000                 
MH-10821         1                MH-10821         0.047108 50.000000 120.479159 1.668961 0.000000                 
MH-10822         1                MH-10822         0.047108 50.000000 120.479159 6.200000 0.000000                 
MH-10823         1                MH-10823         0.047108 50.000000 120.479159 2.993504 0.000000                 
MH-10824         1                MH-10824         0.047108 50.000000 120.479159 4.800000 0.000000                 
MH-10842         1                MH-10842         0.051729 34.782609 111.686672 6.100000 0.000000                 
MH-10845         1                MH-10845         0.051729 34.782609 111.686672 3.500000 0.000000                 
MH-10846         1                MH-10846         0.051729 34.782609 111.686672 2.100000 0.000000                 
MH-10847         1                MH-10847         0.206915 34.782609 223.373344 1.954274 0.000000                 
MH-10848         1                MH-10848         0.103458 34.782609 157.948806 0.633321 0.000000                 
MH-10857         1                MH-10857         0.413831 34.782609 315.897612 0.319220 0.000000                 
MH-10858         1                MH-10858         0.206915 34.782609 223.373344 0.159302 0.000000                 
MH-10859         1                MH-10859         0.362102 34.782609 295.495158 0.144388 0.000000                 
MH-10860         1                MH-10860         0.362102 34.782609 295.495158 2.194285 0.000000                 
MH-10886         1                MH-10886         0.503024 50.000000 590.538675 0.966145 0.000000                 
MH-10921         1                MH-10921         0.465559 34.782609 335.060015 1.973173 0.000000                 
MH-10972         1                MH-10972         0.378381 42.857143 547.538710 4.237288 0.000000                 
MH-10998         1                MH-10998         0.014553 42.857143 107.381176 0.000000 0.000000                 
MH-11018         1                MH-11018         0.020959 50.000000 120.543202 0.000000 0.000000                 
MH-11021         1                MH-11021         0.020959 50.000000 120.543202 0.500000 0.000000                 
MH-1104          1                MH-1104          6.070859 34.782609 1209.929772 0.000000 0.000000                 
MH-11116         1                MH-11116         0.047108 50.000000 120.479159 0.000000 0.000000                 
MH-11151         1                MH-11151         0.047108 50.000000 120.479159 1.000000 0.000000                 
MH-11152         1                MH-11152         0.047108 50.000000 120.479159 1.733587 0.000000                 
MH-11155         1                MH-11155         0.047108 50.000000 120.479159 2.066486 0.000000                 
MH-11157         1                MH-11157         0.047108 50.000000 120.479159 0.657127 0.000000                 
MH-11191         1                MH-11191         0.047108 50.000000 120.479159 0.000000 0.000000                 
MH-11215         1                MH-11215         0.716501 42.857143 532.774279 0.952708 0.000000                 
MH-11238         1                MH-11238         0.047108 50.000000 120.479159 0.000000 0.000000                 
MH-11269         1                MH-11269         0.051729 34.782609 111.686672 0.500000 0.000000                 
MH-11270         1                MH-11270         0.051729 34.782609 111.686672 2.424242 0.000000                 
MH-11271         1                MH-11271         0.051729 34.782609 111.686672 1.608187 0.000000                 
MH-11272         1                MH-11272         0.051729 34.782609 111.686672 2.100000 0.000000                 
MH-11289         1                MH-11289         0.047108 50.000000 120.479159 0.000000 0.000000                 
MH-11332         1                MH-11332         0.037613 66.666667 93.231020 1.619728 0.000000                 
MH-11333         1                MH-11333         0.112838 66.666667 161.480863 0.607992 0.000000                 
MH-11334         1                MH-11334         0.526577 66.666667 348.838533 2.528427 0.000000                 
MH-11335         1                MH-11335         0.037613 66.666667 93.231020 0.800000 0.000000                 
MH-11336         1                MH-11336         0.150451 66.666667 186.462039 3.929833 0.000000                 
MH-11345         1                MH-11345         0.047108 50.000000 120.479159 0.281116 0.000000                 
MH-11404         1                MH-11404         0.047108 50.000000 120.479159 0.700000 0.000000                 
MH-11436         1                MH-11436         0.037613 66.666667 93.231020 1.162118 0.000000                 
MH-11459         1                MH-11459         0.020959 50.000000 120.543202 0.300000 0.000000                 
MH-11466         1                MH-11466         0.037613 66.666667 93.231020 1.000000 0.000000                 
MH-11521         1                MH-11521         0.020959 50.000000 120.543202 0.200000 0.000000                 
MH-11522         1                MH-11522         0.020959 50.000000 120.543202 0.000000 0.000000                 
MH-11523         1                MH-11523         0.020959 50.000000 120.543202 1.400000 0.000000                 
MH-11524         1                MH-11524         0.083837 50.000000 241.086405 0.000000 0.000000                 
MH-11540         1                MH-11540         0.177665 34.782609 206.983558 1.777901 0.000000                 
MH-11550         1                MH-11550         0.399746 34.782609 310.475337 4.360118 0.000000                 
MH-11557         1                MH-11557         0.258644 34.782609 249.738990 0.856952 0.000000                 
MH-11568         1                MH-11568         0.043659 42.857143 185.989652 0.447036 0.000000                 
MH-11570         1                MH-11570         0.043659 42.857143 185.989652 1.498381 0.000000                 
MH-11573         1                MH-11573         0.014553 42.857143 107.381176 2.100000 0.000000                 
MH-11574         1                MH-11574         0.101872 42.857143 284.103886 4.222512 0.000000                 
MH-11575         1                MH-11575         0.014553 42.857143 107.381176 1.800000 0.000000                 
MH-11576         1                MH-11576         0.887741 42.857143 838.673793 1.611930 0.000000                 
MH-11623         1                MH-11623         0.200693 34.782609 219.989031 3.518541 0.000000                 
MH-11626         1                MH-11626         0.033449 34.782609 89.810146 0.936370 0.000000                 
MH-11627         1                MH-11627         0.033449 34.782609 89.810146 0.400000 0.000000                 
MH-11668         1                MH-11668         0.056596 46.666667 144.658893 3.325021 0.000000                 
MH-11670         1                MH-11670         0.056596 46.666667 144.658893 2.689636 0.000000                 
MH-11671         1                MH-11671         0.056596 46.666667 144.658893 0.300000 0.000000                 
MH-11706         1                MH-11706         0.124599 50.000000 207.824116 0.100000 0.000000                 
MH-11707         1                MH-11707         0.124599 50.000000 207.824116 0.500000 0.000000                 
MH-11708         1                MH-11708         0.124599 50.000000 207.824116 0.700000 0.000000                 
MH-11709         1                MH-11709         0.124599 50.000000 207.824116 0.700000 0.000000                 
MH-11710         1                MH-11710         0.124599 50.000000 207.824116 0.300000 0.000000                 
MH-11711         1                MH-11711         0.124599 50.000000 207.824116 0.600000 0.000000                 
MH-11712         1                MH-11712         0.124599 50.000000 207.824116 0.700000 0.000000                 
MH-11713         1                MH-11713         0.124599 50.000000 207.824116 1.900000 0.000000                 
MH-11714         1                MH-11714         0.124599 50.000000 207.824116 1.300000 0.000000                 
MH-11762         1                MH-11762         2.820950 66.666667 807.404314 0.356136 0.000000                 
MH-1177          1                MH-1177          0.203744 42.857143 401.783569 8.968269 0.000000                 
MH-1178          1                MH-1178          0.014553 42.857143 107.381176 1.022913 0.000000                 
MH-1179          1                MH-1179          0.014553 42.857143 107.381176 2.689505 0.000000                 
MH-118           1                MH-118           0.155186 34.782609 193.446990 3.035362 0.000000                 
MH-1180          1                MH-1180          0.058213 42.857143 214.762351 0.576663 0.000000                 
MH-1181          1                MH-1181          0.218297 42.857143 415.885505 1.306451 0.000000                 
MH-1182          1                MH-1182          0.014553 42.857143 107.381176 2.828711 0.000000                 
MH-1183          1                MH-1183          0.130978 42.857143 322.143527 3.403075 0.000000                 
MH-1184          1                MH-1184          0.087319 42.857143 263.029088 0.371529 0.000000                 
MH-1185          1                MH-1185          0.014553 42.857143 107.381176 0.314689 0.000000                 
MH-1186          1                MH-1186          0.480253 42.857143 616.857891 2.722746 0.000000                 
MH-1187          1                MH-1187          0.014553 42.857143 107.381176 4.308606 0.000000                 
MH-1188          1                MH-1188          0.014553 42.857143 107.381176 4.007854 0.000000                 
MH-1189          1                MH-1189          0.014553 42.857143 107.381176 0.875689 0.000000                 
MH-1190          1                MH-1190          0.058213 42.857143 214.762351 1.206360 0.000000                 
MH-1191          1                MH-1191          0.043659 42.857143 185.989652 1.455161 0.000000                 
MH-1192          1                MH-1192          0.422041 42.857143 578.265328 6.749336 0.000000                 
MH-11942         1                MH-11942         0.217121 42.857143 293.282588 1.833716 0.000000                 
MH-1195          1                MH-1195          0.014553 42.857143 107.381176 3.500000 0.000000                 
MH-11950         1                MH-11950         0.151985 42.857143 245.377818 0.824813 0.000000                 
MH-11989         1                MH-11989         2.842638 34.782609 827.934233 1.048373 0.000000                 
MH-12017         1                MH-12017         0.217121 42.857143 293.282588 57.017961 0.000000                 
MH-12082         1                MH-12082         0.033449 34.782609 89.810146 1.200000 0.000000                 
MH-12083         1                MH-12083         0.033449 34.782609 89.810146 2.068688 0.000000                 
MH-12114         1                MH-12114         0.094217 50.000000 170.383260 1.719166 0.000000                 
MH-12121         1                MH-12121         0.206915 34.782609 223.373344 0.707055 0.000000                 
MH-12142         1                MH-12142         0.044416 34.782609 103.491779 4.300000 0.000000                 
MH-12143         1                MH-12143         0.044416 34.782609 103.491779 0.000000 0.000000                 
MH-12144         1                MH-12144         0.355330 34.782609 292.718955 0.114088 0.000000                 
MH-12145         1                MH-12145         0.044416 34.782609 103.491779 5.400000 0.000000                 
MH-12146         1                MH-12146         0.044416 34.782609 103.491779 5.100000 0.000000                 
MH-12147         1                MH-12147         0.044416 34.782609 103.491779 1.337073 0.000000                 
MH-12148         1                MH-12148         0.044416 34.782609 103.491779 1.601553 0.000000                 
MH-12149         1                MH-12149         0.044416 34.782609 103.491779 2.118395 0.000000                 
MH-12150         1                MH-12150         0.133249 34.782609 179.253020 5.601007 0.000000                 