[OPTIONS]
;Option and Files Scenario Set: BASE
FLOW_UNITS	LPS
INFILTRATION	HORTON
FLOW_ROUTING	DYNWAVE
ALLOW_PONDING	NO
DRY_DAYS	5.000000
SKIP_STEADY_STATE 	NO
IGNORE_RAINFALL	NO
IGNORE_SNOWMELT	NO
IGNORE_GROUNDWATER	NO
IGNORE_QUALITY	NO
FORCE_MAIN_EQUATION	H-W
LINK_OFFSETS	DEPTH
MIN_SLOPE	0.000000
START_DATE	01/01/2002
START_TIME	00:00:00
END_DATE	01/01/2002
END_TIME	24:00:00
REPORT_START_DATE	01/01/2002
REPORT_START_TIME	00:00
SWEEP_START	01/01
SWEEP_END	12/31
WET_STEP	01:00:00
DRY_STEP	23:00:00
ROUTING_STEP	300
REPORT_STEP	00:05:00
INERTIAL_DAMPING	NONE
VARIABLE_STEP	0.750000
MINIMUM_STEP	0.5
LENGTHENING_STEP	0
MIN_SURFAREA	0.000000
NORMAL_FLOW_LIMITED	BOTH

[FILES]

[RAINGAGES]

[HYDROGRAPHS]

[TEMPERATURE]

[ADJUSTMENTS]

[SUBCATCHMENTS]

[SUBAREAS]

[INFILTRATION]

[AQUIFERS]

[GROUNDWATER]

[GWF]

[SNOWPACKS]

[JUNCTIONS]
12	80.000000	0.500000	0.000000	304.878049	0.000000
16	93.010000	2.000000	0.000000	304.878049	0.000000
24	88.080000	6.920000	0.000000	0.000000	0.000000
26	88.090000	6.910000	0.000000	0.000000	0.000000
32	118.780000	3.840000	0.000000	0.000000	0.000000
8024	1.500000	2.000000	0.000000	304.878049	0.000000
DUM1	122.100000	0.520000	0.000000	0.000000	0.000000
MHSA0001	87.550000	2.500000	0.000000	0.000000	0.000000
MHSA00502	57.900000	6.900000	0.000000	0.000000	0.000000
MHSA00503	58.247000	7.553000	0.000000	0.000000	0.000000
MHSA00504	58.704000	7.596000	0.000000	0.000000	0.000000
MHSA00505	58.957000	6.943000	0.000000	0.000000	0.000000
MHSA00506	59.009000	6.491000	0.000000	0.000000	0.000000
MHSA00507	59.250000	7.250000	0.000000	0.000000	0.000000
MHSA00508	59.350000	7.950000	0.000000	0.000000	0.000000
MHSA00509	59.450000	6.250000	0.000000	0.000000	0.000000
MHSA00510	59.820000	5.780000	0.000000	0.000000	0.000000
MHSA00511	59.810000	7.590000	0.000000	0.000000	0.000000
MHSA00512	60.082000	7.924000	0.000000	0.000000	0.000000
MHSA00513	63.880000	3.220000	0.000000	0.000000	0.000000
MHSA00514	64.474000	3.226000	0.000000	0.000000	0.000000
MHSA00515	65.084000	2.616000	0.000000	0.000000	0.000000
MHSA00516	67.660000	1.640000	0.000000	0.000000	0.000000
MHSA00517	68.138000	2.562000	0.000000	0.000000	0.000000
MHSA00518	68.550000	6.050000	0.000000	0.000000	0.000000
MHSA00519	68.982000	6.918000	0.000000	0.000000	0.000000
MHSA00520	69.321000	6.879000	0.000000	0.000000	0.000000
MHSA00521	70.525000	6.675000	0.000000	0.000000	0.000000
MHSA00522	70.772000	8.628000	0.000000	0.000000	0.000000
MHSA00530	111.984000	2.856000	0.000000	0.000000	0.000000
MHSA00531	112.170000	2.810000	0.000000	0.000000	0.000000
MHSA00690	88.900000	6.810000	0.000000	0.000000	0.000000
MHSA00691	88.970000	6.890000	0.000000	0.000000	0.000000
MHSA00692	89.050000	6.870000	0.000000	0.000000	0.000000
MHSA00693	89.110000	6.600000	0.000000	0.000000	0.000000
MHSA00694	89.240000	6.620000	0.000000	0.000000	0.000000
MHSA00695	89.250000	6.460000	0.000000	0.000000	0.000000
MHSA00696	81.207000	4.243000	0.000000	0.000000	0.000000
MHSA00697	82.605000	4.125000	0.000000	0.000000	0.000000
MHSA00698	83.397000	4.373000	0.000000	0.000000	0.000000
MHSA00699	84.920000	5.340000	0.000000	0.000000	0.000000
MHSA00700	86.395000	6.365000	0.000000	0.000000	0.000000
MHSA00701	87.228000	6.072000	0.000000	0.000000	0.000000
MHSA00702	88.050000	5.580000	0.000000	0.000000	0.000000
MHSA00703	88.095000	5.575000	0.000000	0.000000	0.000000
MHSA00704	89.251000	5.019000	0.000000	0.000000	0.000000
MHSA00705	90.125000	4.755000	0.000000	0.000000	0.000000
MHSA00706	90.895000	4.325000	0.000000	0.000000	0.000000
MHSA00707	91.713000	4.087000	0.000000	0.000000	0.000000
MHSA00708	92.391000	4.349000	0.000000	0.000000	0.000000
MHSA00709	93.347000	5.733000	0.000000	0.000000	0.000000
MHSA00710	94.757000	6.823000	0.000000	0.000000	0.000000
MHSA00711	94.927000	6.763000	0.000000	0.000000	0.000000
MHSA00712	97.131000	4.539000	0.000000	0.000000	0.000000
MHSA00713	97.965000	4.355000	0.000000	0.000000	0.000000
MHSA00714	99.269000	4.881000	0.000000	0.000000	0.000000
MHSA00715	99.934000	5.126000	0.000000	0.000000	0.000000
MHSA00716	101.955000	3.225000	0.000000	0.000000	0.000000
MHSA00717	102.603000	4.027000	0.000000	0.000000	0.000000
MHSA00718	103.350000	3.680000	0.000000	0.000000	0.000000
MHSA00719	104.150000	3.260000	0.000000	0.000000	0.000000
MHSA00720	104.815000	3.405000	0.000000	0.000000	0.000000
MHSA00721	105.461000	4.529000	0.000000	0.000000	0.000000
MHSA00722	106.151000	5.479000	0.000000	0.000000	0.000000
MHSA00723	106.637000	6.063000	0.000000	0.000000	0.000000
MHSA00724	109.471000	3.209000	0.000000	0.000000	0.000000
MHSA00725	109.607000	3.533000	0.000000	0.000000	0.000000
MHSA00726	110.410000	4.420000	0.000000	0.000000	0.000000
MHSA00737	76.871000	3.699000	0.000000	0.000000	0.000000
MHSA00738	77.093000	3.347000	0.000000	0.000000	0.000000
MHSA00739	77.313000	3.927000	0.000000	0.000000	0.000000
MHSA00740	77.517000	4.713000	0.000000	0.000000	0.000000
MHSA00741	77.550000	4.780000	0.000000	0.000000	0.000000
MHSA00742	77.610000	4.720000	0.000000	0.000000	0.000000
MHSA00743	77.670000	5.020000	0.000000	0.000000	0.000000
MHSA00744	77.858000	6.042000	0.000000	0.000000	0.000000
MHSA00745	78.020000	5.660000	0.000000	0.000000	0.000000
MHSA00746	78.240000	5.730000	0.000000	0.000000	0.000000
MHSA00747	78.240000	5.760000	0.000000	0.000000	0.000000
MHSA00748	78.352000	5.598000	0.000000	0.000000	0.000000
MHSA00749	78.472000	5.988000	0.000000	0.000000	0.000000
MHSA00750	81.110000	3.440000	0.000000	0.000000	0.000000
MHSA00799	73.700000	5.320000	0.000000	0.000000	0.000000
MHSA00800	73.790000	5.460000	0.000000	0.000000	0.000000
MHSA00801	74.120000	5.710000	0.000000	0.000000	0.000000
MHSA00802	74.370000	7.030000	0.000000	0.000000	0.000000
MHSA00803	74.560000	6.100000	0.000000	0.000000	0.000000
MHSA00804	74.750000	6.500000	0.000000	0.000000	0.000000
MHSA00805	75.000000	5.790000	0.000000	0.000000	0.000000
MHSA00806	75.360000	7.620000	0.000000	0.000000	0.000000
MHSA00807	75.660000	7.510000	0.000000	0.000000	0.000000
MHSA00808	75.950000	7.190000	0.000000	0.000000	0.000000
MHSA00809	76.140000	7.740000	0.000000	0.000000	0.000000
MHSA00810	78.310000	7.970000	0.000000	0.000000	0.000000
MHSA00811	80.970000	8.150000	0.000000	0.000000	0.000000
MHSA00812	81.350000	9.520000	0.000000	0.000000	0.000000
MHSA00813	84.860000	6.790000	0.000000	0.000000	0.000000
MHSA00814	85.010000	5.930000	0.000000	0.000000	0.000000
MHSA00815	85.170000	5.720000	0.000000	0.000000	0.000000
MHSA00816	85.320000	5.540000	0.000000	0.000000	0.000000
MHSA00817	85.600000	6.530000	0.000000	0.000000	0.000000
MHSA00818	85.680000	6.550000	0.000000	0.000000	0.000000
MHSA00819	85.790000	6.970000	0.000000	0.000000	0.000000
MHSA00820	85.900000	6.650000	0.000000	0.000000	0.000000
MHSA00821	86.290000	8.110000	0.000000	0.000000	0.000000
MHSA00822	89.500000	6.380000	0.000000	0.000000	0.000000
MHSA00823	89.600000	7.230000	0.000000	0.000000	0.000000
MHSA00824	89.800000	7.020000	0.000000	0.000000	0.000000
MHSA00825	90.004000	7.146000	0.000000	0.000000	0.000000
MHSA00826	90.140000	6.730000	0.000000	0.000000	0.000000
MHSA00827	90.280000	6.480000	0.000000	0.000000	0.000000
MHSA00828	90.510000	7.100000	0.000000	0.000000	0.000000
MHSA00829	90.610000	7.250000	0.000000	0.000000	0.000000
MHSA00830	90.790000	7.240000	0.000000	0.000000	0.000000
MHSA00831	90.910000	6.110000	0.000000	0.000000	0.000000
MHSA00832	91.080000	5.600000	0.000000	0.000000	0.000000
MHSA00833	91.240000	5.590000	0.000000	0.000000	0.000000
MHSA00834	91.330000	6.350000	0.000000	0.000000	0.000000
MHSA00835	91.500000	7.250000	0.000000	0.000000	0.000000
MHSA00836	91.670000	6.540000	0.000000	0.000000	0.000000
MHSA00837	91.800000	5.510000	0.000000	0.000000	0.000000
MHSA00838	92.130000	4.600000	0.000000	0.000000	0.000000
MHSA00839	92.370000	4.360000	0.000000	0.000000	0.000000
MHSA00840	92.540000	4.730000	0.000000	0.000000	0.000000
MHSA00841	92.670000	4.370000	0.000000	0.000000	0.000000
MHSA00842	92.802000	3.618000	0.000000	0.000000	0.000000
MHSA00843	92.870000	3.500000	0.000000	0.000000	0.000000
MHSA00844	92.930000	3.650000	0.000000	0.000000	0.000000
MHSA00845	93.100000	3.640000	0.000000	0.000000	0.000000
MHSA00846	93.330000	3.600000	0.000000	0.000000	0.000000
MHSA00847	93.470000	3.950000	0.000000	0.000000	0.000000
MHSA00848	93.690000	3.740000	0.000000	0.000000	0.000000
MHSA00849	93.950000	4.220000	0.000000	0.000000	0.000000
MHSA00850	94.110000	4.750000	0.000000	0.000000	0.000000
MHSA00851	94.360000	6.210000	0.000000	0.000000	0.000000
MHSA00852	94.450000	6.310000	0.000000	0.000000	0.000000
MHSA00853	94.700000	5.920000	0.000000	0.000000	0.000000
MHSA00854	94.900000	6.100000	0.000000	0.000000	0.000000
MHSA00855	94.970000	6.360000	0.000000	0.000000	0.000000
MHSA00856	95.190000	6.000000	0.000000	0.000000	0.000000
MHSA00857	95.290000	6.100000	0.000000	0.000000	0.000000
MHSA00858	95.730000	3.890000	0.000000	0.000000	0.000000
MHSA00859	96.090000	4.550000	0.000000	0.000000	0.000000
MHSA00860	96.480000	4.860000	0.000000	0.000000	0.000000
MHSA00861	96.760000	5.240000	0.000000	0.000000	0.000000
MHSA00862	97.020000	3.790000	0.000000	0.000000	0.000000
MHSA00863	97.070000	4.010000	0.000000	0.000000	0.000000
MHSA00864	97.300000	4.770000	0.000000	0.000000	0.000000
MHSA00865	97.580000	3.160000	0.000000	0.000000	0.000000
MHSA00887	80.130000	5.270000	0.000000	0.000000	0.000000
MHSA00901	80.490000	3.190000	0.000000	0.000000	0.000000
MHSA00902	81.750000	2.160000	0.000000	0.000000	0.000000
MHSA00903	82.020000	2.190000	0.000000	0.000000	0.000000
MHSA00904	82.370000	2.040000	0.000000	0.000000	0.000000
MHSA00905	82.800000	1.480000	0.000000	0.000000	0.000000
MHSA00906	83.010000	2.750000	0.000000	0.000000	0.000000
MHSA00907	83.210000	3.110000	0.000000	0.000000	0.000000
MHSA00908	83.400000	3.700000	0.000000	0.000000	0.000000
MHSA00909	83.410000	4.310000	0.000000	0.000000	0.000000
MHSA00910	83.770000	4.010000	0.000000	0.000000	0.000000
MHSA00911	84.167000	3.393000	0.000000	0.000000	0.000000
MHSA00912	84.200000	3.150000	0.000000	0.000000	0.000000
MHSA00913	84.295000	2.755000	0.000000	0.000000	0.000000
MHSA00914	84.366000	2.714000	0.000000	0.000000	0.000000
MHSA00915	84.439000	2.871000	0.000000	0.000000	0.000000
MHSA00916	84.555000	2.445000	0.000000	0.000000	0.000000
MHSA00917	84.625000	2.155000	0.000000	0.000000	0.000000
MHSA00918	84.683000	2.397000	0.000000	0.000000	0.000000
MHSA00919	84.768000	2.792000	0.000000	0.000000	0.000000
MHSA00920	85.225000	3.025000	0.000000	0.000000	0.000000
MHSA00921	85.280000	3.480000	0.000000	0.000000	0.000000
MHSA00922	85.310000	3.600000	0.000000	0.000000	0.000000
MHSA00923	85.414000	3.976000	0.000000	0.000000	0.000000
MHSA00924	85.460000	4.170000	0.000000	0.000000	0.000000
MHSA00925	82.550000	1.660000	0.000000	304.878049	0.000000
MHSA00926	82.750000	0.550000	0.000000	304.878049	0.000000
MHSA01037	83.790000	3.180000	0.000000	0.000000	0.000000
MHSA01038	83.920000	3.350000	0.000000	0.000000	0.000000
MHSA01039	84.070000	1.670000	0.000000	0.000000	0.000000
MHSA01040	84.180000	1.070000	0.000000	0.000000	0.000000
MHSA01041	84.170000	1.210000	0.000000	0.000000	0.000000
MHSA01107	69.348000	4.942000	0.000000	0.000000	0.000000
MHSA01108	72.177000	3.303000	0.000000	0.000000	0.000000
MHSA01109	72.410000	3.730000	0.000000	0.000000	0.000000
MHSA01110	72.683000	4.067000	0.000000	0.000000	0.000000
MHSA01111	72.896000	4.234000	0.000000	0.000000	0.000000
MHSA01112	73.110000	4.780000	0.000000	0.000000	0.000000
MHSA01113	73.390000	4.960000	0.000000	0.000000	0.000000
MHSA01114	73.660000	4.950000	0.000000	0.000000	0.000000
MHSA01115	74.040000	5.080000	0.000000	0.000000	0.000000
MHSA01116	74.440000	4.240000	0.000000	0.000000	0.000000
MHSA01117	74.700000	4.820000	0.000000	0.000000	0.000000
MHSA01118	74.910000	3.320000	0.000000	0.000000	0.000000
MHSA01119	75.130000	3.230000	0.000000	0.000000	0.000000
MHSA01120	75.310000	3.120000	0.000000	0.000000	0.000000
MHSA01121	75.510000	2.970000	0.000000	0.000000	0.000000
MHSA01122	75.650000	2.530000	0.000000	0.000000	0.000000
MHSA01123	75.860000	3.060000	0.000000	0.000000	0.000000
MHSA01124	75.980000	3.410000	0.000000	0.000000	0.000000
MHSA01125	76.030000	3.420000	0.000000	0.000000	0.000000
MHSA01126	76.180000	3.840000	0.000000	0.000000	0.000000
MHSA01127	76.320000	4.290000	0.000000	0.000000	0.000000
MHSA01128	76.480000	5.670000	0.000000	0.000000	0.000000
MHSA01129	76.630000	5.540000	0.000000	0.000000	0.000000
MHSA01136	65.710000	5.840000	0.000000	0.000000	0.000000
MHSA01137	69.900000	1.670000	0.000000	0.000000	0.000000
MHSA01138	70.010000	1.760000	0.000000	0.000000	0.000000
MHSA01139	70.150000	3.240000	0.000000	0.000000	0.000000
MHSA01140	70.270000	2.330000	0.000000	0.000000	0.000000
MHSA01141	70.400000	2.240000	0.000000	0.000000	0.000000
MHSA01142	70.520000	2.040000	0.000000	0.000000	0.000000
MHSA01143	70.890000	2.460000	0.000000	0.000000	0.000000
MHSA01144	70.960000	2.730000	0.000000	0.000000	0.000000
MHSA01145	71.100000	3.560000	0.000000	0.000000	0.000000
MHSA01146	71.220000	4.420000	0.000000	0.000000	0.000000
MHSA01147	71.280000	8.850000	0.000000	0.000000	0.000000
MHSA01148	71.330000	6.410000	0.000000	0.000000	0.000000
MHSA01149	71.430000	3.290000	0.000000	0.000000	0.000000
MHSA01150	71.530000	3.330000	0.000000	0.000000	0.000000
MHSA01151	71.630000	3.250000	0.000000	0.000000	0.000000
MHSA01152	71.740000	2.200000	0.000000	0.000000	0.000000
MHSA01153	71.840000	2.220000	0.000000	0.000000	0.000000
MHSA01154	71.940000	2.610000	0.000000	0.000000	0.000000
MHSA01155	72.050000	1.970000	0.000000	0.000000	0.000000
MHSA01156	72.160000	2.990000	0.000000	0.000000	0.000000
MHSA01157	72.270000	2.550000	0.000000	0.000000	0.000000
MHSA01158	72.390000	1.600000	0.000000	0.000000	0.000000
MHSA01159	73.090000	0.260000	0.000000	0.000000	0.000000
MHSA01160	73.340000	0.520000	0.000000	0.000000	0.000000
MHSA01161	73.460000	0.760000	0.000000	0.000000	0.000000
MHSA01162	73.620000	1.770000	0.000000	0.000000	0.000000
MHSA01163	73.770000	1.720000	0.000000	0.000000	0.000000
MHSA01164	73.840000	2.340000	0.000000	0.000000	0.000000
MHSA01165	75.180000	1.180000	0.000000	0.000000	0.000000
MHSA01166	75.360000	1.070000	0.000000	0.000000	0.000000
MHSA01167	75.780000	1.180000	0.000000	0.000000	0.000000
MHSA01168	76.140000	0.770000	0.000000	0.000000	0.000000
MHSA01169	76.450000	1.320000	0.000000	0.000000	0.000000
MHSA01170	77.100000	0.760000	0.000000	0.000000	0.000000
MHSA01171	77.360000	1.200000	0.000000	0.000000	0.000000
MHSA01172	77.800000	3.070000	0.000000	0.000000	0.000000
MHSA01173	79.330000	1.920000	0.000000	0.000000	0.000000
MHSA01175	79.550000	2.270000	0.000000	304.878049	0.000000
MHSA01176	80.120000	2.150000	0.000000	0.000000	0.000000
MHSA01177	80.420000	2.760000	0.000000	0.000000	0.000000
MHSA01178	81.520000	3.720000	0.000000	0.000000	0.000000
MHSA01179	81.540000	4.310000	0.000000	0.000000	0.000000
MHSA01180	81.480000	4.700000	0.000000	0.000000	0.000000
MHSA01482	89.440000	5.320000	0.000000	0.000000	0.000000
MHSA01483	89.620000	5.960000	0.000000	0.000000	0.000000
MHSA01484	89.710000	6.450000	0.000000	0.000000	0.000000
MHSA01485	89.860000	6.510000	0.000000	0.000000	0.000000
MHSA01486	89.990000	5.360000	0.000000	0.000000	0.000000
MHSA01487	90.180000	4.740000	0.000000	0.000000	0.000000
MHSA01488	90.330000	4.710000	0.000000	0.000000	0.000000
MHSA01489	90.450000	4.610000	0.000000	0.000000	0.000000
MHSA01490	90.620000	4.380000	0.000000	0.000000	0.000000
MHSA01491	90.750000	4.630000	0.000000	0.000000	0.000000
MHSA01492	91.210000	4.040000	0.000000	0.000000	0.000000
MHSA01492X	91.560000	3.800000	0.000000	0.000000	0.000000
MHSA01493	91.650000	3.610000	0.000000	0.000000	0.000000
MHSA01494	91.800000	3.510000	0.000000	0.000000	0.000000
MHSA01495	91.900000	3.260000	0.000000	0.000000	0.000000
MHSA01496	91.960000	4.220000	0.000000	0.000000	0.000000
MHSA01497	92.030000	5.490000	0.000000	0.000000	0.000000
MHSA01509	89.540000	5.150000	0.000000	0.000000	0.000000
MHSA01510	91.380000	3.700000	0.000000	0.000000	0.000000
MHSA01511	93.330000	3.210000	0.000000	0.000000	0.000000
MHSA01512	94.480000	2.040000	0.000000	0.000000	0.000000
MHSA01513	95.490000	2.630000	0.000000	0.000000	0.000000
MHSA01514	96.460000	2.440000	0.000000	0.000000	0.000000
MHSA01515	96.880000	2.690000	0.000000	0.000000	0.000000
MHSA01516	97.300000	2.610000	0.000000	0.000000	0.000000
MHSA01517	97.720000	2.480000	0.000000	0.000000	0.000000
MHSA01518	98.150000	2.580000	0.000000	0.000000	0.000000
MHSA01519	98.560000	2.630000	0.000000	0.000000	0.000000
MHSA01520	98.990000	2.430000	0.000000	0.000000	0.000000
MHSA01521	99.400000	2.480000	0.000000	0.000000	0.000000
MHSA01522	99.800000	3.150000	0.000000	0.000000	0.000000
MHSA01523	100.220000	2.840000	0.000000	0.000000	0.000000
MHSA01524	1.000000	103.060000	0.000000	0.000000	0.000000
MHSA01525	100.630000	3.660000	0.000000	0.000000	0.000000
MHSA01526	101.040000	4.780000	0.000000	0.000000	0.000000
MHSA01527	101.930000	4.640000	0.000000	0.000000	0.000000
MHSA01528	102.730000	3.980000	0.000000	0.000000	0.000000
MHSA01529	103.000000	3.830000	0.000000	0.000000	0.000000
MHSA01530	103.240000	5.200000	0.000000	0.000000	0.000000
MHSA01531	103.490000	7.350000	0.000000	0.000000	0.000000
MHSA01532	103.740000	7.020000	0.000000	0.000000	0.000000
MHSA01533	104.000000	6.990000	0.000000	0.000000	0.000000
MHSA01534	104.270000	7.210000	0.000000	0.000000	0.000000
MHSA01535	104.490000	7.430000	0.000000	0.000000	0.000000
MHSA01536	104.700000	7.640000	0.000000	0.000000	0.000000
MHSA01537	104.730000	7.920000	0.000000	0.000000	0.000000
MHSA01538	104.950000	8.380000	0.000000	0.000000	0.000000
MHSA01539	105.160000	9.150000	0.000000	0.000000	0.000000
MHSA01540	107.280000	8.180000	0.000000	0.000000	0.000000
MHSA01541	107.290000	8.490000	0.000000	0.000000	0.000000
MHSA01542	112.780000	3.140000	0.000000	0.000000	0.000000
MHSA01564	65.620000	6.900000	0.000000	0.000000	0.000000
MHSA01565	70.060000	1.340000	0.000000	0.000000	0.000000
MHSA01566	70.290000	1.840000	0.000000	0.000000	0.000000
MHSA01567	70.680000	3.560000	0.000000	0.000000	0.000000
MHSA01568	70.940000	2.200000	0.000000	0.000000	0.000000
MHSA01569	71.040000	2.920000	0.000000	0.000000	0.000000
MHSA01570	71.350000	2.930000	0.000000	0.000000	0.000000
MHSA01571	71.620000	3.020000	0.000000	0.000000	0.000000
MHSA01572	71.830000	2.740000	0.000000	0.000000	0.000000
MHSA01574	72.750000	2.270000	0.000000	0.000000	0.000000
MHSA01575	73.110000	2.460000	0.000000	0.000000	0.000000
MHSA01576	73.580000	2.780000	0.000000	0.000000	0.000000
MHSA01577	75.300000	2.830000	0.000000	0.000000	0.000000
MHSA01578	77.190000	3.050000	0.000000	0.000000	0.000000
MHSA01579	77.710000	2.730000	0.000000	0.000000	0.000000
MHSA01580	77.950000	2.640000	0.000000	0.000000	0.000000
MHSA01581	78.310000	2.790000	0.000000	0.000000	0.000000
MHSA01582	78.950000	2.600000	0.000000	0.000000	0.000000
MHSA01583	79.320000	2.790000	0.000000	0.000000	0.000000
MHSA01584	80.070000	2.930000	0.000000	0.000000	0.000000
MHSA01585	80.390000	3.290000	0.000000	0.000000	0.000000
MHSA01602	57.910000	8.350000	0.000000	0.000000	0.000000
MHSA01603	58.130000	11.500000	0.000000	0.000000	0.000000
MHSA01604	58.340000	8.510000	0.000000	0.000000	0.000000
MHSA01605	58.560000	7.030000	0.000000	0.000000	0.000000
MHSA01606	58.890000	6.900000	0.000000	0.000000	0.000000
MHSA01607	59.190000	7.980000	0.000000	0.000000	0.000000
MHSA01608	59.460000	5.430000	0.000000	0.000000	0.000000
MHSA01609	59.760000	5.330000	0.000000	0.000000	0.000000
MHSA01610	59.890000	3.870000	0.000000	0.000000	0.000000
MHSA01611	60.050000	5.220000	0.000000	0.000000	0.000000
MHSA01612	61.680000	4.100000	0.000000	0.000000	0.000000
MHSA01613	61.840000	3.910000	0.000000	0.000000	0.000000
MHSA01614	62.070000	3.510000	0.000000	0.000000	0.000000
MHSA01615	62.340000	3.070000	0.000000	0.000000	0.000000
MHSA01616	62.613000	3.327000	0.000000	0.000000	0.000000
MHSA01617	62.896000	3.374000	0.000000	0.000000	0.000000
MHSA01618	63.507000	3.453000	0.000000	0.000000	0.000000
MHSA01619	63.755000	3.495000	0.000000	0.000000	0.000000
MHSA01620	63.994000	3.826000	0.000000	0.000000	0.000000
MHSA01621	64.226000	4.514000	0.000000	0.000000	0.000000
MHSA01622	64.473000	2.787000	0.000000	0.000000	0.000000
MHSA01623	64.653000	3.527000	0.000000	0.000000	0.000000
MHSA01624	64.758000	3.572000	0.000000	0.000000	0.000000
MHSA01625	64.862000	3.338000	0.000000	0.000000	0.000000
MHSA01626	64.986000	2.934000	0.000000	0.000000	0.000000
MHSA01627	65.220000	4.960000	0.000000	0.000000	0.000000
MHSA01628	65.335000	5.865000	0.000000	0.000000	0.000000
MHSA01629	65.470000	5.850000	0.000000	0.000000	0.000000
MHSA01766	55.495000	44.505000	0.000000	0.000000	0.000000
MHSA01767	55.640000	6.360000	0.000000	0.000000	0.000000
MHSA01768	56.030000	8.770000	0.000000	0.000000	0.000000
MHSA01769	56.200000	9.200000	0.000000	0.000000	0.000000
MHSA01770	56.280000	8.620000	0.000000	0.000000	0.000000
MHSA01771	56.300000	8.900000	0.000000	0.000000	0.000000
MHSA01772	56.410000	8.190000	0.000000	0.000000	0.000000
MHSA01773	56.540000	5.660000	0.000000	0.000000	0.000000
MHSA01774	56.680000	4.620000	0.000000	0.000000	0.000000
MHSA01777	0.000000	62.620000	0.000000	0.000000	0.000000
MHSA01778	0.000000	64.510000	0.000000	0.000000	0.000000
MHSA01779	0.000000	66.020000	0.000000	0.000000	0.000000
MHSA01780	0.000000	64.840000	0.000000	0.000000	0.000000
MHSA01781	0.000000	64.900000	0.000000	0.000000	0.000000
MHSA01782	0.000000	64.060000	0.000000	0.000000	0.000000
MHSA01783	0.000000	63.780000	0.000000	0.000000	0.000000
MHSA01784	0.000000	65.390000	0.000000	0.000000	0.000000
MHSA01785	0.000000	64.900000	0.000000	0.000000	0.000000
MHSA01786	0.000000	65.530000	0.000000	0.000000	0.000000
MHSA01787	0.000000	67.500000	0.000000	0.000000	0.000000
MHSA01788	0.000000	66.270000	0.000000	0.000000	0.000000
MHSA01789	0.000000	66.050000	0.000000	0.000000	0.000000
MHSA01790	63.340000	3.150000	0.000000	0.000000	0.000000
MHSA01791	63.407000	3.643000	0.000000	0.000000	0.000000
MHSA01792	63.730000	3.150000	0.000000	0.000000	0.000000
MHSA01793	0.000000	66.660000	0.000000	0.000000	0.000000
MHSA01794	0.000000	67.020000	0.000000	0.000000	0.000000
MHSA01795	0.000000	67.960000	0.000000	0.000000	0.000000
MHSA01796	0.000000	68.310000	0.000000	0.000000	0.000000
MHSA01797	0.000000	69.410000	0.000000	0.000000	0.000000
MHSA01798	0.000000	70.050000	0.000000	0.000000	0.000000
MHSA01799	0.000000	70.100000	0.000000	0.000000	0.000000
MHSA01800	0.000000	70.230000	0.000000	0.000000	0.000000
MHSA01801	0.000000	71.660000	0.000000	0.000000	0.000000
MHSA01802	0.000000	72.270000	0.000000	0.000000	0.000000
MHSA01803	0.000000	71.380000	0.000000	0.000000	0.000000
MHSA01804	0.000000	71.680000	0.000000	0.000000	0.000000
MHSA01851	104.740000	2.000000	0.000000	304.878049	0.000000
MHSA01852	126.130000	2.000000	0.000000	304.878049	0.000000
MHSA01853	113.820000	2.000000	0.000000	304.878049	0.000000
MHSA01854	105.120000	2.000000	0.000000	304.878049	0.000000
MHSA01855	72.900000	2.000000	0.000000	304.878049	0.000000
MHSA01856	66.200000	2.000000	0.000000	304.878049	0.000000
MHSA01857	78.100000	2.000000	0.000000	304.878049	0.000000
MHSA06330	86.530000	5.270000	0.000000	0.000000	0.000000
MHSA07165	113.197000	3.103000	0.000000	0.000000	0.000000
MHSA07820	113.973000	4.227000	0.000000	0.000000	0.000000
MHSA07851	113.422000	3.178000	0.000000	0.000000	0.000000
MHSA07852	113.553000	4.147000	0.000000	0.000000	0.000000
MHSA07853	113.662000	4.338000	0.000000	0.000000	0.000000
MHSA07854	113.777000	4.523000	0.000000	0.000000	0.000000
MHSA07855	114.315000	3.885000	0.000000	0.000000	0.000000
MHSA07856	0.000000	118.900000	0.000000	0.000000	0.000000
MHSA07857	114.480000	4.920000	0.000000	0.000000	0.000000
MHSA09369	108.004000	7.396000	0.000000	0.000000	0.000000
MHSA09371	108.779000	6.621000	0.000000	0.000000	0.000000
MHSA09375	109.177000	5.823000	0.000000	0.000000	0.000000
MHSA09376	111.061000	5.939000	0.000000	0.000000	0.000000
MHSA09377	110.467000	4.733000	0.000000	0.000000	0.000000
MHSA09398	112.650000	5.750000	0.000000	0.000000	0.000000
MHSA09399	0.000000	117.800000	0.000000	0.000000	0.000000
MHSA09400	112.458000	5.442000	0.000000	0.000000	0.000000
MHSA09401	112.287000	6.313000	0.000000	0.000000	0.000000
MHSA09402	111.945000	7.655000	0.000000	0.000000	0.000000
MHSA09403	111.774000	7.526000	0.000000	0.000000	0.000000
MHSA09404	111.640000	5.660000	0.000000	0.000000	0.000000
MHSA09405	111.520000	5.880000	0.000000	0.000000	0.000000
MHSA09406	111.243000	6.957000	0.000000	0.000000	0.000000
MHSA09415	109.359000	5.441000	0.000000	0.000000	0.000000
MHSA10139	88.650000	5.650000	0.000000	0.000000	0.000000
MHSA10308	92.367000	5.533000	0.000000	0.000000	0.000000
MHSA10309	93.407000	5.193000	0.000000	0.000000	0.000000
MHSA10314	95.786000	4.514000	0.000000	0.000000	0.000000
MHSA10315	96.631000	3.869000	0.000000	0.000000	0.000000
MHSA10317	97.527000	3.473000	0.000000	0.000000	0.000000
MHSA10339	97.896000	3.104000	0.000000	0.000000	0.000000
MHSA10340	98.024000	3.476000	0.000000	0.000000	0.000000
MHSA10342	98.908000	3.692000	0.000000	0.000000	0.000000
MHSA10343	99.471000	4.129000	0.000000	0.000000	0.000000
MHSA10354	99.587000	4.813000	0.000000	0.000000	0.000000
MHSA10355	99.761000	6.239000	0.000000	0.000000	0.000000
MHSA10356	99.895000	6.105000	0.000000	0.000000	0.000000
MHSA10357	100.246000	5.254000	0.000000	0.000000	0.000000
MHSA10358	100.267000	5.033000	0.000000	0.000000	0.000000
MHSA10360	100.432000	4.168000	0.000000	0.000000	0.000000
MHSA10361	100.694000	3.506000	0.000000	0.000000	0.000000
MHSA10383	100.958000	3.842000	0.000000	0.000000	0.000000
MHSA10384	101.087000	4.013000	0.000000	0.000000	0.000000
MHSA10385	101.523000	4.277000	0.000000	0.000000	0.000000
MHSA10386	101.895000	4.705000	0.000000	0.000000	0.000000
MHSA10407	102.211000	5.089000	0.000000	0.000000	0.000000
MHSA10409	102.330000	5.370000	0.000000	0.000000	0.000000
MHSA10421	103.545000	12.055000	0.000000	0.000000	0.000000
MHSA10535	103.454000	12.446000	0.000000	0.000000	0.000000
MHSA10553	102.634000	6.366000	0.000000	0.000000	0.000000
MHSA10554	102.546000	6.154000	0.000000	0.000000	0.000000
MHSA10555	102.832000	6.568000	0.000000	0.000000	0.000000
MHSA10556	102.884000	6.916000	0.000000	0.000000	0.000000
MHSA10557	103.192000	8.508000	0.000000	0.000000	0.000000
MHSA10558	103.195000	10.305000	0.000000	0.000000	0.000000
MHSA10720	93.030000	3.170000	0.000000	0.000000	0.000000
MHSA10769	90.885000	5.515000	0.000000	0.000000	0.000000
MHSA10770	89.931000	6.269000	0.000000	0.000000	0.000000
MHSA10771	90.017000	5.583000	0.000000	0.000000	0.000000
MHSA10772	90.678000	6.222000	0.000000	0.000000	0.000000
MHSA10773	90.630000	6.370000	0.000000	0.000000	0.000000
MHSA10774	90.318000	7.282000	0.000000	0.000000	0.000000
MHSA10792	93.726000	3.074000	0.000000	0.000000	0.000000
MHSA10794	91.093000	4.707000	0.000000	0.000000	0.000000
MHSA10795	91.135000	4.765000	0.000000	0.000000	0.000000
MHSA10796	0.000000	96.000000	0.000000	0.000000	0.000000
MHSA10797	91.440000	5.060000	0.000000	0.000000	0.000000
MHSA10798	91.483000	4.917000	0.000000	0.000000	0.000000
MHSA10799	0.000000	96.600000	0.000000	0.000000	0.000000
MHSA10800	91.690000	4.510000	0.000000	0.000000	0.000000
MHSA10805	91.909000	4.391000	0.000000	0.000000	0.000000
MHSA10807	92.309000	3.491000	0.000000	0.000000	0.000000
MHSA10808	93.262000	3.038000	0.000000	0.000000	0.000000
MHSA10946	89.663000	6.037000	0.000000	0.000000	0.000000
MHSA10968	89.355000	6.145000	0.000000	0.000000	0.000000
MHSA11832	88.853000	4.997000	0.000000	0.000000	0.000000
MHSA11834	88.700000	4.140000	0.000000	0.000000	0.000000
MHSA11835	88.788000	4.192000	0.000000	0.000000	0.000000
MHSA11836	88.764000	4.176000	0.000000	0.000000	0.000000
MHSA11837	88.517000	4.643000	0.000000	0.000000	0.000000
MHSA11838	87.094000	3.986000	0.000000	0.000000	0.000000
MHSA11839	87.971000	3.719000	0.000000	0.000000	0.000000
MHSA11840	87.810000	3.780000	0.000000	0.000000	0.000000
MHSA11844	87.249000	3.741000	0.000000	0.000000	0.000000
MHSA11859	88.169000	4.661000	0.000000	0.000000	0.000000
MHSA11860	86.938000	3.572000	0.000000	0.000000	0.000000
MHSA11861	86.777000	3.653000	0.000000	0.000000	0.000000
MHSA11862	86.399000	3.871000	0.000000	0.000000	0.000000
MHSA11863	86.146000	2.924000	0.000000	0.000000	0.000000
MHSA11864	85.862000	2.918000	0.000000	0.000000	0.000000
MHSA11865	85.509000	2.961000	0.000000	0.000000	0.000000
MHSA11975	87.420000	6.780000	0.000000	0.000000	0.000000
MHSA11976	87.210000	7.590000	0.000000	0.000000	0.000000
MHSA11977	87.180000	7.720000	0.000000	0.000000	0.000000
MHSA11978	86.950000	8.650000	0.000000	0.000000	0.000000
MHSA11980	86.640000	10.160000	0.000000	0.000000	0.000000
MHSA11981	98.170000	1.830000	0.000000	0.000000	0.000000
MHSA12040	86.095000	4.205000	0.000000	0.000000	0.000000
MHSA12041	86.115000	4.185000	0.000000	0.000000	0.000000
MHSA12042	86.060000	4.740000	0.000000	0.000000	0.000000
MHSA12043	86.010000	4.190000	0.000000	0.000000	0.000000
MHSA12044	85.900000	4.400000	0.000000	0.000000	0.000000
MHSA12046	85.730000	4.070000	0.000000	0.000000	0.000000
MHSA12047	85.670000	3.530000	0.000000	0.000000	0.000000
MHSA12048	85.690000	2.710000	0.000000	0.000000	0.000000
MHSA12049	85.600000	4.700000	0.000000	0.000000	0.000000
MHSA12049X	85.530000	4.770000	0.000000	0.000000	0.000000
MHSA12052	85.470000	4.230000	0.000000	0.000000	0.000000
MHSA12091	84.887000	3.123000	0.000000	0.000000	0.000000
MHSA12094	86.274000	3.626000	0.000000	0.000000	0.000000
MHSA12095	86.337000	3.463000	0.000000	0.000000	0.000000
MHSA12096	86.494000	4.106000	0.000000	0.000000	0.000000
MHSA12097	86.570000	4.430000	0.000000	0.000000	0.000000
MHSA12099	86.711000	4.189000	0.000000	0.000000	0.000000
MHSA12129	79.093000	1.707000	0.000000	0.000000	0.000000
MHSA12130	79.249000	2.951000	0.000000	0.000000	0.000000
MHSA12131	79.174000	2.526000	0.000000	0.000000	0.000000
MHSA12137	79.005000	2.395000	0.000000	0.000000	0.000000
MHSA12138	78.954000	2.546000	0.000000	0.000000	0.000000
MHSA12142	78.870000	3.130000	0.000000	0.000000	0.000000
MHSA12145	78.789000	4.211000	0.000000	0.000000	0.000000
MHSA12147	78.812000	4.188000	0.000000	0.000000	0.000000
MHSA12152	78.512000	5.888000	0.000000	0.000000	0.000000
MHSA12196	71.530000	3.180000	0.000000	0.000000	0.000000
MHSA12335	89.000000	4.540000	0.000000	0.000000	0.000000
MHSA12336	88.978000	4.652000	0.000000	0.000000	0.000000