[TITLE]
;;Project Title/Notes

[OPTIONS]
;;Option             Value
FLOW_UNITS           CFS
INFILTRATION         HORTON
FLOW_ROUTING         DYNWAVE
LINK_OFFSETS         DEPTH
MIN_SLOPE            0
ALLOW_PONDING        NO
SKIP_STEADY_STATE    NO

START_DATE           01/01/2002
START_TIME           00:00:00
REPORT_START_DATE    01/01/2002
REPORT_START_TIME    00:00:00
END_DATE             01/01/2002
END_TIME             12:00:00
SWEEP_START          01/01
SWEEP_END            12/31
DRY_DAYS             5.000000
REPORT_STEP          00:05:00
WET_STEP             01:00:00
DRY_STEP             23:00:00
ROUTING_STEP         0:01:00 

INERTIAL_DAMPING     NONE
NORMAL_FLOW_LIMITED  BOTH
FORCE_MAIN_EQUATION  H-W
VARIABLE_STEP        0.75
LENGTHENING_STEP     10
MIN_SURFAREA         12.557
MAX_TRIALS           8
HEAD_TOLERANCE       0.001
SYS_FLOW_TOL         5
LAT_FLOW_TOL         5
MINIMUM_STEP         0
THREADS              1

[EVAPORATION]
;;Data Source    Parameters
;;-------------- ----------------
CONSTANT         0.0
DRY_ONLY         NO

[JUNCTIONS]
;;Name           Elevation  MaxDepth   InitDepth  SurDepth   Aponded   
;;-------------- ---------- ---------- ---------- ---------- ----------
; New Manhole
20               315.266000 2.000000   0.000000   0.000000   0.000000  
; New Manhole
22               315.835000 2.000000   0.000000   0.000000   0.000000  
; New Manhole
24               323.727000 2.000000   0.000000   0.000000   0.000000  
; New Manhole
26               329.500000 2.000000   0.000000   0.000000   0.000000  
; New Manhole
28               339.852000 2.000000   0.000000   0.000000   0.000000  
; New Manhole
30               333.740000 2.000000   0.000000   0.000000   0.000000  
; New Manhole
32               329.500000 2.000000   0.000000   0.000000   0.000000  
; New Manhole
34               351.898000 2.000000   0.000000   0.000000   0.000000  
; New Manhole
36               329.678000 2.000000   0.000000   0.000000   0.000000  
; New Manhole
38               319.500000 2.000000   0.000000   0.000000   0.000000  
; New Manhole
40               323.811000 2.000000   0.000000   0.000000   0.000000  
; New Manhole
42               325.326000 2.000000   0.000000   0.000000   0.000000  
; New Manhole
44               336.609000 2.000000   0.000000   0.000000   0.000000  
; New Manhole
46               328.243000 2.000000   0.000000   0.000000   0.000000  
; New Manhole
48               329.592000 2.000000   0.000000   0.000000   0.000000  
; New Manhole
50               330.959000 2.000000   0.000000   0.000000   0.000000  
; New Manhole
52               343.842000 2.000000   0.000000   0.000000   0.000000  
; New Manhole
54               334.500000 2.000000   0.000000   0.000000   0.000000  
; New Manhole
56               341.602000 2.000000   0.000000   0.000000   0.000000  
; New Manhole
58               351.065000 2.000000   0.000000   0.000000   0.000000  
; New Manhole
60               353.559000 2.000000   0.000000   0.000000   0.000000  
; New Manhole
62               367.500000 2.000000   0.000000   0.000000   0.000000  
; New Manhole
64               343.500000 2.000000   0.000000   0.000000   0.000000  
; New Manhole
66               350.500000 2.000000   0.000000   0.000000   0.000000  
; New Manhole
68               364.989000 2.000000   0.000000   0.000000   0.000000  
; New Manhole
70               377.240000 2.000000   0.000000   0.000000   0.000000  
; New Manhole
72               367.332000 2.000000   0.000000   0.000000   0.000000  
; New Manhole
74               389.500000 2.000000   0.000000   0.000000   0.000000  
; New Manhole
76               383.684000 2.000000   0.000000   0.000000   0.000000  
; New Manhole
78               381.962000 2.000000   0.000000   0.000000   0.000000  
; New Manhole
80               420.241000 2.000000   0.000000   0.000000   0.000000  
; New Manhole
82               376.951000 2.000000   0.000000   0.000000   0.000000  
; New Manhole
84               345.374000 2.000000   0.000000   0.000000   0.000000  
; New Manhole
86               409.416000 2.000000   0.000000   0.000000   0.000000  
; New Manhole
88               360.500000 2.000000   0.000000   0.000000   0.000000  
; New Manhole
90               363.043000 2.000000   0.000000   0.000000   0.000000  
; New Manhole
92               363.952000 2.000000   0.000000   0.000000   0.000000  
; New Manhole
NL_100           329.963000 2.000000   0.000000   0.000000   0.000000  
; New Manhole
NL_102           343.462000 2.000000   0.000000   0.000000   0.000000  
; New Manhole
NL_104           342.411000 2.000000   0.000000   0.000000   0.000000  
; New Manhole
NL_106           341.287000 2.000000   0.000000   0.000000   0.000000  
; New Manhole
NL_108           339.911000 2.000000   0.000000   0.000000   0.000000  
; New Manhole
NL_110           337.742000 2.000000   0.000000   0.000000   0.000000  
; New Manhole
NL_112           335.579000 2.000000   0.000000   0.000000   0.000000  
; New Manhole
NL_114           333.352000 2.000000   0.000000   0.000000   0.000000  
; New Manhole
NL_116           330.923000 2.000000   0.000000   0.000000   0.000000  
; New Manhole
NL_118           328.400000 2.000000   0.000000   0.000000   0.000000  
; New Manhole
NL_120           328.284000 2.000000   0.000000   0.000000   0.000000  
; New Manhole
NL_122           337.003000 2.000000   0.000000   0.000000   0.000000  
; New Manhole
NL_124           335.217000 2.000000   0.000000   0.000000   0.000000  
; New Manhole
NL_126           334.680000 2.000000   0.000000   0.000000   0.000000  
; New Manhole
NL_128           334.499000 2.000000   0.000000   0.000000   0.000000  
; New Manhole
NL_130           333.032000 2.000000   0.000000   0.000000   0.000000  
; New Manhole
NL_132           331.116000 2.000000   0.000000   0.000000   0.000000  
; New Manhole
NL_134           330.611000 2.000000   0.000000   0.000000   0.000000  
; New Manhole
NL_136           325.807000 2.000000   0.000000   0.000000   0.000000  
; New Manhole
NL_138           319.500000 2.000000   0.000000   0.000000   0.000000  
; New Manhole
NL_140           329.500000 2.000000   0.000000   0.000000   0.000000  
; New Manhole
NL_142           329.500000 2.000000   0.000000   0.000000   0.000000  
; New Manhole
NL_144           324.761000 2.000000   0.000000   0.000000   0.000000  
; New Manhole
NL_146           329.410000 2.000000   0.000000   0.000000   0.000000  
; New Manhole
NL_148           334.483000 2.000000   0.000000   0.000000   0.000000  
; New Manhole
NL_150           334.055000 2.000000   0.000000   0.000000   0.000000  
; New Manhole
NL_152           330.680000 2.000000   0.000000   0.000000   0.000000  
; New Manhole
NL_154           330.817000 2.000000   0.000000   0.000000   0.000000  
; New Manhole
NL_156           319.908000 2.000000   0.000000   0.000000   0.000000  
; New Manhole
NL_158           316.276000 2.000000   0.000000   0.000000   0.000000  
; New Manhole
NL_160           318.358000 2.000000   0.000000   0.000000   0.000000  
; New Manhole
NL_162           318.699000 2.000000   0.000000   0.000000   0.000000  
; New Manhole
NL_164           318.869000 2.000000   0.000000   0.000000   0.000000  
; New Manhole
NL_166           321.500000 2.000000   0.000000   0.000000   0.000000  
; New Manhole
NL_168           319.563000 2.000000   0.000000   0.000000   0.000000  
; New Manhole
NL_170           317.454000 2.000000   0.000000   0.000000   0.000000  
; New Manhole
NL_172           320.089000 2.000000   0.000000   0.000000   0.000000  
; New Manhole
NL_174           319.500000 2.000000   0.000000   0.000000   0.000000  
; New Manhole
NL_176           319.251000 2.000000   0.000000   0.000000   0.000000  
; New Manhole
NL_178           327.082000 2.000000   0.000000   0.000000   0.000000  
; New Manhole
NL_180           316.561000 2.000000   0.000000   0.000000   0.000000  
; New Manhole
NL_182           318.338000 2.000000   0.000000   0.000000   0.000000  
; New Manhole
NL_184           315.135000 2.000000   0.000000   0.000000   0.000000  
; New Manhole
NL_186           314.902000 2.000000   0.000000   0.000000   0.000000  
; New Manhole
NL_188           319.746000 2.000000   0.000000   0.000000   0.000000  
; New Manhole
NL_190           319.188000 2.000000   0.000000   0.000000   0.000000  
; New Manhole
NL_192           320.004000 2.000000   0.000000   0.000000   0.000000  
; New Manhole
NL_194           327.372000 2.000000   0.000000   0.000000   0.000000  
; New Manhole
NL_196           324.786000 2.000000   0.000000   0.000000   0.000000  
; New Manhole
NL_198           324.500000 2.000000   0.000000   0.000000   0.000000  
; New Manhole
NL_200           325.798000 2.000000   0.000000   0.000000   0.000000  
; New Manhole
NL_202           329.069000 2.000000   0.000000   0.000000   0.000000  
; New Manhole
NL_204           329.500000 2.000000   0.000000   0.000000   0.000000  
; New Manhole
NL_206           330.500000 2.000000   0.000000   0.000000   0.000000  
; New Manhole
NL_208           334.500000 2.000000   0.000000   0.000000   0.000000  
; New Manhole
NL_210           332.735000 2.000000   0.000000   0.000000   0.000000  
; New Manhole
NL_212           335.500000 2.000000   0.000000   0.000000   0.000000  
; New Manhole
NL_214           338.509000 2.000000   0.000000   0.000000   0.000000  
; New Manhole
NL_216           335.337000 2.000000   0.000000   0.000000   0.000000  
; New Manhole
NL_218           341.845000 2.000000   0.000000   0.000000   0.000000  
; New Manhole
NL_220           344.500000 2.000000   0.000000   0.000000   0.000000  
; New Manhole
NL_222           344.597000 2.000000   0.000000   0.000000   0.000000  
; New Manhole
NL_224           344.718000 2.000000   0.000000   0.000000   0.000000  
; New Manhole
NL_226           344.500000 2.000000   0.000000   0.000000   0.000000  
; New Manhole
NL_228           348.235000 2.000000   0.000000   0.000000   0.000000  
; New Manhole
NL_230           330.500000 2.000000   0.000000   0.000000   0.000000  
; New Manhole
NL_232           330.929000 2.000000   0.000000   0.000000   0.000000  
; New Manhole
NL_234           330.533000 2.000000   0.000000   0.000000   0.000000  
; New Manhole
NL_236           331.268000 2.000000   0.000000   0.000000   0.000000  
; New Manhole
NL_238           339.500000 2.000000   0.000000   0.000000   0.000000  
; New Manhole
NL_240           340.311000 2.000000   0.000000   0.000000   0.000000  
; New Manhole
NL_242           344.575000 2.000000   0.000000   0.000000   0.000000  
; New Manhole
NL_244           347.807000 2.000000   0.000000   0.000000   0.000000  
; New Manhole
NL_246           346.372000 2.000000   0.000000   0.000000   0.000000  
; New Manhole
NL_248           350.000000 2.000000   0.000000   0.000000   0.000000  
; New Manhole
NL_250           365.500000 2.000000   0.000000   0.000000   0.000000  
; New Manhole
NL_252           364.807000 2.000000   0.000000   0.000000   0.000000  
; New Manhole
NL_254           364.500000 2.000000   0.000000   0.000000   0.000000  
; New Manhole
NL_256           344.398000 2.000000   0.000000   0.000000   0.000000  
; New Manhole
NL_258           345.500000 2.000000   0.000000   0.000000   0.000000  
; New Manhole
NL_260           342.484000 2.000000   0.000000   0.000000   0.000000  
; New Manhole
NL_262           344.198000 2.000000   0.000000   0.000000   0.000000  
; New Manhole
NL_264           346.628000 2.000000   0.000000   0.000000   0.000000  
; New Manhole
NL_266           348.691000 2.000000   0.000000   0.000000   0.000000  
; New Manhole
NL_268           352.798000 2.000000   0.000000   0.000000   0.000000  
; New Manhole
NL_270           350.431000 2.000000   0.000000   0.000000   0.000000  
; New Manhole
NL_272           351.995000 2.000000   0.000000   0.000000   0.000000  
; New Manhole
NL_274           345.572000 2.000000   0.000000   0.000000   0.000000  
; New Manhole
NL_276           347.992000 2.000000   0.000000   0.000000   0.000000  
; New Manhole
NL_278           349.500000 2.000000   0.000000   0.000000   0.000000  
; New Manhole
NL_280           342.644000 2.000000   0.000000   0.000000   0.000000  
; New Manhole
NL_282           363.371000 2.000000   0.000000   0.000000   0.000000  
; New Manhole
NL_284           347.222000 2.000000   0.000000   0.000000   0.000000  
; New Manhole
NL_286           346.051000 2.000000   0.000000   0.000000   0.000000  
; New Manhole
NL_288           348.158000 2.000000   0.000000   0.000000   0.000000  
; New Manhole
NL_290           365.873000 2.000000   0.000000   0.000000   0.000000  
; New Manhole
NL_292           364.858000 2.000000   0.000000   0.000000   0.000000  
; New Manhole
NL_294           368.933000 2.000000   0.000000   0.000000   0.000000  
; New Manhole
NL_296           369.500000 2.000000   0.000000   0.000000   0.000000  
; New Manhole
NL_298           380.379000 2.000000   0.000000   0.000000   0.000000  
; New Manhole
NL_300           387.160000 2.000000   0.000000   0.000000   0.000000  
; New Manhole
NL_302           341.449000 2.000000   0.000000   0.000000   0.000000  
; New Manhole
NL_304           341.175000 2.000000   0.000000   0.000000   0.000000  
; New Manhole
NL_306           340.848000 2.000000   0.000000   0.000000   0.000000  
; New Manhole
NL_308           344.500000 2.000000   0.000000   0.000000   0.000000  
; New Manhole
NL_310           345.563000 2.000000   0.000000   0.000000   0.000000  
; New Manhole
NL_312           346.036000 2.000000   0.000000   0.000000   0.000000  
; New Manhole
NL_314           339.500000 2.000000   0.000000   0.000000   0.000000  
; New Manhole
NL_316           345.467000 2.000000   0.000000   0.000000   0.000000  
; New Manhole
NL_318           352.090000 2.000000   0.000000   0.000000   0.000000  
; New Manhole
NL_320           351.918000 2.000000   0.000000   0.000000   0.000000  
; New Manhole
NL_322           356.031000 2.000000   0.000000   0.000000   0.000000  
; New Manhole
NL_324           359.292000 2.000000   0.000000   0.000000   0.000000  
; New Manhole
NL_326           351.429000 2.000000   0.000000   0.000000   0.000000  
; New Manhole
NL_328           354.642000 2.000000   0.000000   0.000000   0.000000  
; New Manhole
NL_330           350.470000 2.000000   0.000000   0.000000   0.000000  
; New Manhole
NL_332           350.717000 2.000000   0.000000   0.000000   0.000000  
; New Manhole
NL_334           353.538000 2.000000   0.000000   0.000000   0.000000  
; New Manhole
NL_336           368.032000 2.000000   0.000000   0.000000   0.000000  
; New Manhole
NL_338           368.992000 2.000000   0.000000   0.000000   0.000000  
; New Manhole
NL_340           368.587000 2.000000   0.000000   0.000000   0.000000  
; New Manhole
NL_342           366.936000 2.000000   0.000000   0.000000   0.000000  
; New Manhole
NL_344           370.528000 2.000000   0.000000   0.000000   0.000000  
; New Manhole
NL_346           370.500000 2.000000   0.000000   0.000000   0.000000  
; New Manhole
NL_348           367.613000 2.000000   0.000000   0.000000   0.000000  
; New Manhole
NL_350           369.500000 2.000000   0.000000   0.000000   0.000000  
; New Manhole
NL_352           374.103000 2.000000   0.000000   0.000000   0.000000  
; New Manhole
NL_354           375.125000 2.000000   0.000000   0.000000   0.000000  
; New Manhole
NL_356           366.927000 2.000000   0.000000   0.000000   0.000000  
; New Manhole
NL_358           369.500000 2.000000   0.000000   0.000000   0.000000  
; New Manhole
NL_360           370.784000 2.000000   0.000000   0.000000   0.000000  
; New Manhole
NL_362           366.959000 2.000000   0.000000   0.000000   0.000000  
; New Manhole
NL_364           367.360000 2.000000   0.000000   0.000000   0.000000  
; New Manhole
NL_366           367.159000 2.000000   0.000000   0.000000   0.000000  
; New Manhole
NL_368           365.771000 2.000000   0.000000   0.000000   0.000000  
; New Manhole
NL_370           359.212000 2.000000   0.000000   0.000000   0.000000  
; New Manhole
NL_372           366.862000 2.000000   0.000000   0.000000   0.000000  
; New Manhole
NL_374           369.500000 2.000000   0.000000   0.000000   0.000000  
; New Manhole
NL_376           369.500000 2.000000   0.000000   0.000000   0.000000  
; New Manhole
NL_378           381.142000 2.000000   0.000000   0.000000   0.000000  
; New Manhole
NL_380           380.000000 2.000000   0.000000   0.000000   0.000000  
; New Manhole
NL_382           379.500000 2.000000   0.000000   0.000000   0.000000  
; New Manhole
NL_384           375.598000 2.000000   0.000000   0.000000   0.000000  
; New Manhole
NL_386           384.197000 2.000000   0.000000   0.000000   0.000000  
; New Manhole
NL_388           392.541000 2.000000   0.000000   0.000000   0.000000  
; New Manhole
NL_390           384.500000 2.000000   0.000000   0.000000   0.000000  
; New Manhole
NL_392           380.846000 2.000000   0.000000   0.000000   0.000000  
; New Manhole
NL_394           383.901000 2.000000   0.000000   0.000000   0.000000  
; New Manhole
NL_396           386.803000 2.000000   0.000000   0.000000   0.000000  
; New Manhole
NL_398           383.110000 2.000000   0.000000   0.000000   0.000000  
; New Manhole
NL_400           380.500000 2.000000   0.000000   0.000000   0.000000  
; New Manhole
NL_402           390.500000 2.000000   0.000000   0.000000   0.000000  
; New Manhole
NL_404           389.696000 2.000000   0.000000   0.000000   0.000000  
; New Manhole
NL_406           411.048000 2.000000   0.000000   0.000000   0.000000  
; New Manhole
NL_408           420.472000 2.000000   0.000000   0.000000   0.000000  
; New Manhole
NL_410           314.500000 2.000000   0.000000   0.000000   0.000000  
; New Manhole
NL_412           318.773000 2.000000   0.000000   0.000000   0.000000  
; New Manhole
NL_414           316.014000 2.000000   0.000000   0.000000   0.000000  
; New Manhole
NL_416           316.294000 2.000000   0.000000   0.000000   0.000000  
; New Manhole
NL_418           318.365000 2.000000   0.000000   0.000000   0.000000  
; New Manhole
NL_420           320.548000 2.000000   0.000000   0.000000   0.000000  
; New Manhole
NL_422           320.034000 2.000000   0.000000   0.000000   0.000000  
; New Manhole
NL_424           318.888000 2.000000   0.000000   0.000000   0.000000  
; New Manhole
NL_426           318.648000 2.000000   0.000000   0.000000   0.000000  
; New Manhole
NL_428           317.428000 2.000000   0.000000   0.000000   0.000000  
; New Manhole
NL_430           315.319000 2.000000   0.000000   0.000000   0.000000  
; New Manhole
NL_432           319.947000 2.000000   0.000000   0.000000   0.000000  
; New Manhole
NL_434           315.140000 2.000000   0.000000   0.000000   0.000000  
; New Manhole
NL_436           314.926000 2.000000   0.000000   0.000000   0.000000  
; New Manhole
NL_438           314.953000 2.000000   0.000000   0.000000   0.000000  
; New Manhole
NL_440           319.162000 2.000000   0.000000   0.000000   0.000000  
; New Manhole
NL_442           319.787000 2.000000   0.000000   0.000000   0.000000  
; New Manhole
NL_444           319.699000 2.000000   0.000000   0.000000   0.000000  
; New Manhole
NL_446           320.560000 2.000000   0.000000   0.000000   0.000000  
; New Manhole
NL_448           324.500000 2.000000   0.000000   0.000000   0.000000  
; New Manhole
NL_450           323.192000 2.000000   0.000000   0.000000   0.000000  
; New Manhole
NL_452           325.029000 2.000000   0.000000   0.000000   0.000000  
; New Manhole
NL_454           329.651000 2.000000   0.000000   0.000000   0.000000  
; New Manhole
NL_456           317.464000 2.000000   0.000000   0.000000   0.000000  
; New Manhole
NL_458           319.296000 2.000000   0.000000   0.000000   0.000000  
; New Manhole
NL_460           320.079000 2.000000   0.000000   0.000000   0.000000  
; New Manhole
NL_462           320.876000 2.000000   0.000000   0.000000   0.000000  
; New Manhole
NL_464           329.500000 2.000000   0.000000   0.000000   0.000000  
; New Manhole
NL_466           325.462000 2.000000   0.000000   0.000000   0.000000  
; New Manhole
NL_468           329.495000 2.000000   0.000000   0.000000   0.000000  
; New Manhole
NL_470           325.500000 2.000000   0.000000   0.000000   0.000000  
; New Manhole
NL_472           330.000000 2.000000   0.000000   0.000000   0.000000  
; New Manhole
NL_474           339.400000 2.000000   0.000000   0.000000   0.000000  
; New Manhole
NL_476           334.756000 2.000000   0.000000   0.000000   0.000000  
; New Manhole
NL_478           334.431000 2.000000   0.000000   0.000000   0.000000  
; New Manhole
NL_480           333.706000 2.000000   0.000000   0.000000   0.000000  
; New Manhole
NL_482           333.867000 2.000000   0.000000   0.000000   0.000000  
; New Manhole
NL_484           339.873000 2.000000   0.000000   0.000000   0.000000  
; New Manhole
NL_486           339.670000 2.000000   0.000000   0.000000   0.000000  
; New Manhole
NL_488           332.121000 2.000000   0.000000   0.000000   0.000000  
; New Manhole
NL_490           340.760000 2.000000   0.000000   0.000000   0.000000  
; New Manhole
NL_492           344.253000 2.000000   0.000000   0.000000   0.000000  
; New Manhole
NL_494           344.500000 2.000000   0.000000   0.000000   0.000000  
; New Manhole
NL_496           344.860000 2.000000   0.000000   0.000000   0.000000  
; New Manhole
NL_498           345.679000 2.000000   0.000000   0.000000   0.000000  
; New Manhole
NL_500           345.647000 2.000000   0.000000   0.000000   0.000000  
; New Manhole
NL_502           351.776000 2.000000   0.000000   0.000000   0.000000  
; New Manhole
NL_504           324.624000 2.000000   0.000000   0.000000   0.000000  
; New Manhole
NL_506           324.606000 2.000000   0.000000   0.000000   0.000000  
; New Manhole
NL_508           329.238000 2.000000   0.000000   0.000000   0.000000  
; New Manhole
NL_510           331.068000 2.000000   0.000000   0.000000   0.000000  
; New Manhole
NL_512           329.418000 2.000000   0.000000   0.000000   0.000000  
; New Manhole
NL_514           330.950000 2.000000   0.000000   0.000000   0.000000  
; New Manhole
NL_516           336.961000 2.000000   0.000000   0.000000   0.000000  
; New Manhole
NL_518           339.449000 2.000000   0.000000   0.000000   0.000000  
; New Manhole
NL_520           340.821000 2.000000   0.000000   0.000000   0.000000  
; New Manhole
NL_522           328.112000 2.000000   0.000000   0.000000   0.000000  
; New Manhole
NL_524           326.968000 2.000000   0.000000   0.000000   0.000000  
; New Manhole
NL_526           325.573000 2.000000   0.000000   0.000000   0.000000  
; New Manhole
NL_528           324.045000 2.000000   0.000000   0.000000   0.000000  
; New Manhole
NL_530           328.879000 2.000000   0.000000   0.000000   0.000000  
; New Manhole
NL_532           322.203000 2.000000   0.000000   0.000000   0.000000  
; New Manhole
NL_534           327.969000 2.000000   0.000000   0.000000   0.000000  
; New Manhole
NL_536           329.696000 2.000000   0.000000   0.000000   0.000000  
; New Manhole
NL_538           330.352000 2.000000   0.000000   0.000000   0.000000  
; New Manhole
NL_540           331.998000 2.000000   0.000000   0.000000   0.000000  
; New Manhole
NL_542           335.065000 2.000000   0.000000   0.000000   0.000000  
; New Manhole
NL_544           335.500000 2.000000   0.000000   0.000000   0.000000  
; New Manhole
NL_546           336.937000 2.000000   0.000000   0.000000   0.000000  
; New Manhole
NL_548           335.944000 2.000000   0.000000   0.000000   0.000000  
; New Manhole
NL_550           334.745000 2.000000   0.000000   0.000000   0.000000  
; New Manhole
NL_552           328.089000 2.000000   0.000000   0.000000   0.000000  
; New Manhole
NL_554           327.500000 2.000000   0.000000   0.000000   0.000000  
; New Manhole
NL_556           328.947000 2.000000   0.000000   0.000000   0.000000  
; New Manhole
NL_558           330.500000 2.000000   0.000000   0.000000   0.000000  
; New Manhole
NL_560           329.380000 2.000000   0.000000   0.000000   0.000000  
; New Manhole
NL_562           329.675000 2.000000   0.000000   0.000000   0.000000  
; New Manhole
NL_564           330.375000 2.000000   0.000000   0.000000   0.000000  
; New Manhole
NL_566           329.906000 2.000000   0.000000   0.000000   0.000000  
; New Manhole
NL_568           332.262000 2.000000   0.000000   0.000000   0.000000  
; New Manhole
NL_570           334.586000 2.000000   0.000000   0.000000   0.000000  
; New Manhole
NL_572           336.707000 2.000000   0.000000   0.000000   0.000000  
; New Manhole
NL_574           339.066000 2.000000   0.000000   0.000000   0.000000  
; New Manhole
NL_576           340.736000 2.000000   0.000000   0.000000   0.000000  
; New Manhole
NL_578           341.703000 2.000000   0.000000   0.000000   0.000000  
; New Manhole
NL_580           342.905000 2.000000   0.000000   0.000000   0.000000  
; New Manhole
NL_582           343.580000 2.000000   0.000000   0.000000   0.000000  
; New Manhole
NL_584           343.986000 2.000000   0.000000   0.000000   0.000000  
; New Manhole
NL_586           343.990000 2.000000   0.000000   0.000000   0.000000  
; New Manhole
NL_588           345.167000 2.000000   0.000000   0.000000   0.000000  
; New Manhole
NL_590           342.945000 2.000000   0.000000   0.000000   0.000000  
; New Manhole
NL_592           343.316000 2.000000   0.000000   0.000000   0.000000  
; New Manhole
NL_594           346.742000 2.000000   0.000000   0.000000   0.000000  
; New Manhole
NL_596           347.771000 2.000000   0.000000   0.000000   0.000000  
; New Manhole
NL_598           349.767000 2.000000   0.000000   0.000000   0.000000  
; New Manhole
NL_600           350.670000 2.000000   0.000000   0.000000   0.000000  
; New Manhole
NL_602           365.500000 2.000000   0.000000   0.000000   0.000000  
; New Manhole
NL_604           364.500000 2.000000   0.000000   0.000000   0.000000  
; New Manhole
NL_606           364.500000 2.000000   0.000000   0.000000   0.000000  
; New Manhole
NL_608           366.616000 2.000000   0.000000   0.000000   0.000000  
; New Manhole
NL_610           345.426000 2.000000   0.000000   0.000000   0.000000  
; New Manhole
NL_612           347.713000 2.000000   0.000000   0.000000   0.000000  
; New Manhole
NL_614           349.931000 2.000000   0.000000   0.000000   0.000000  
; New Manhole
NL_616           352.500000 2.000000   0.000000   0.000000   0.000000  
; New Manhole
NL_618           9.044000   2.000000   0.000000   1000.000000 0.000000  
; New Manhole
NL_620           350.500000 2.000000   0.000000   0.000000   0.000000  
; New Manhole
NL_622           349.500000 2.000000   0.000000   0.000000   0.000000  
; New Manhole
NL_624           349.744000 2.000000   0.000000   0.000000   0.000000  
; New Manhole
NL_626           346.423000 2.000000   0.000000   0.000000   0.000000  
; New Manhole
NL_628           345.186000 2.000000   0.000000   0.000000   0.000000  
; New Manhole
NL_630           350.137000 2.000000   0.000000   0.000000   0.000000  
; New Manhole
NL_632           344.500000 2.000000   0.000000   0.000000   0.000000  
; New Manhole
NL_634           351.147000 2.000000   0.000000   0.000000   0.000000  
; New Manhole
NL_636           358.287000 2.000000   0.000000   0.000000   0.000000  
; New Manhole
NL_638           349.202000 2.000000   0.000000   0.000000   0.000000  
; New Manhole
NL_640           339.674000 2.000000   0.000000   0.000000   0.000000  
; New Manhole
NL_644           346.425000 2.000000   0.000000   0.000000   0.000000  
; New Manhole
NL_646           351.024000 2.000000   0.000000   0.000000   0.000000  
; New Manhole
NL_648           372.820000 2.000000   0.000000   0.000000   0.000000  
; New Manhole
NL_650           369.463000 2.000000   0.000000   0.000000   0.000000  
; New Manhole
NL_654           369.747000 2.000000   0.000000   0.000000   0.000000  
; New Manhole
NL_656           378.367000 2.000000   0.000000   0.000000   0.000000  
; New Manhole
NL_658           397.637000 2.000000   0.000000   0.000000   0.000000  
; New Manhole
NL_660           340.537000 2.000000   0.000000   0.000000   0.000000  
; New Manhole
NL_662           342.180000 2.000000   0.000000   0.000000   0.000000  
; New Manhole
NL_664           339.757000 2.000000   0.000000   0.000000   0.000000  
; New Manhole
NL_666           344.312000 2.000000   0.000000   0.000000   0.000000  
; New Manhole
NL_668           347.486000 2.000000   0.000000   0.000000   0.000000  
; New Manhole
NL_670           344.089000 2.000000   0.000000   0.000000   0.000000  
; New Manhole
NL_672           344.500000 2.000000   0.000000   0.000000   0.000000  
; New Manhole
NL_674           346.812000 2.000000   0.000000   0.000000   0.000000  
; New Manhole
NL_676           357.301000 2.000000   0.000000   0.000000   0.000000  
; New Manhole
NL_678           351.591000 2.000000   0.000000   0.000000   0.000000  
; New Manhole
NL_680           354.290000 2.000000   0.000000   0.000000   0.000000  
; New Manhole
NL_682           353.090000 2.000000   0.000000   0.000000   0.000000  
; New Manhole
NL_684           363.992000 2.000000   0.000000   0.000000   0.000000  
; New Manhole
NL_686           350.407000 2.000000   0.000000   0.000000   0.000000  
; New Manhole
NL_688           354.500000 2.000000   0.000000   0.000000   0.000000  
; New Manhole
NL_690           355.500000 2.000000   0.000000   0.000000   0.000000  
; New Manhole
NL_692           349.500000 2.000000   0.000000   0.000000   0.000000  
; New Manhole
NL_694           350.076000 2.000000   0.000000   0.000000   0.000000  
; New Manhole
NL_696           363.108000 2.000000   0.000000   0.000000   0.000000  
; New Manhole