[TITLE]
;;Project Title/Notes

[OPTIONS]
;;Option             Value
FLOW_UNITS           GPM
INFILTRATION         HORTON
FLOW_ROUTING         DYNWAVE
LINK_OFFSETS         DEPTH
MIN_SLOPE            0
ALLOW_PONDING        NO
SKIP_STEADY_STATE    NO

START_DATE           01/01/2002
START_TIME           00:00:00
REPORT_START_DATE    01/01/2002
REPORT_START_TIME    00:00:00
END_DATE             01/01/2002
END_TIME             23:00:00
SWEEP_START          01/01
SWEEP_END            12/31
DRY_DAYS             5.000000
REPORT_STEP          00:05:00
WET_STEP             00:05:00
DRY_STEP             01:00:00
ROUTING_STEP         0:00:02 

INERTIAL_DAMPING     NONE
NORMAL_FLOW_LIMITED  SLOPE
FORCE_MAIN_EQUATION  H-W
VARIABLE_STEP        0.75
LENGTHENING_STEP     2
MIN_SURFAREA         0
MAX_TRIALS           0
HEAD_TOLERANCE       0
SYS_FLOW_TOL         5
LAT_FLOW_TOL         5
MINIMUM_STEP         0.5
THREADS              1

[EVAPORATION]
;;Data Source    Parameters
;;-------------- ----------------
CONSTANT         0.0
DRY_ONLY         NO

[JUNCTIONS]
;;Name           Elevation  MaxDepth   InitDepth  SurDepth   Aponded   
;;-------------- ---------- ---------- ---------- ---------- ----------
AIRPORT_PUMPS_SURROG 5225.500000 4.000000   0.000000   1000.000000 0.000000  
BAR_NUNN_#1_PUMPS_SU 5275.720000 4.000000   0.000000   1000.000000 0.000000  
BEGONIA_PUMPS_SURROG 5148.500000 4.000000   0.000000   1000.000000 0.000000  
BR-0020          5088.760000 13.800000  0.000000   0.000000   0.000000  
BR-0025          5089.070000 16.930000  0.000000   0.000000   0.000000  
BR-0030          5090.100000 13.400000  0.000000   0.000000   0.000000  
BR-0035          5091.000000 14.200000  0.000000   0.000000   0.000000  
BR-0040          5091.600000 17.100000  0.000000   0.000000   0.000000  
BR-0045          5112.900000 10.100000  0.000000   0.000000   0.000000  
BR-0050          5149.000000 7.300000   0.000000   0.000000   0.000000  
BR-0055          5173.700000 6.600000   0.000000   0.000000   0.000000  
BR-0060          5189.900000 8.400000   0.000000   0.000000   0.000000  
BR-0065          5191.380000 17.720000  0.000000   0.000000   0.000000  
BR-0100          5199.200000 8.800000   0.000000   0.000000   0.000000  
BR-0105          5202.000000 6.000000   0.000000   0.000000   0.000000  
BR-0110          5203.240000 15.860000  0.000000   0.000000   0.000000  
BR-0115          5204.670000 21.510000  0.000000   0.000000   0.000000  
BRYAN_STOCK_TRAIL_PU 5098.010000 4.000000   0.000000   1000.000000 0.000000  
CC-0005          5107.690000 13.810000  0.000000   0.000000   0.000000  
CC-0010          5107.850000 14.000000  0.000000   0.000000   0.000000  
CC-0015          5108.010000 13.990000  0.000000   0.000000   0.000000  
CC-0020          5108.280000 13.120000  0.000000   0.000000   0.000000  
CC-0025          5108.330000 12.170000  0.000000   0.000000   0.000000  
CC-0030          5108.530000 11.470000  0.000000   0.000000   0.000000  
CC-0035          5108.600000 11.200000  0.000000   0.000000   0.000000  
CC-0040          5108.770000 11.930000  0.000000   0.000000   0.000000  
CC-0045          5109.010000 12.490000  0.000000   0.000000   0.000000  
CC-0050          5109.130000 9.440000   0.000000   0.000000   0.000000  
CC-0055          5113.740000 7.360000   0.000000   0.000000   0.000000  
CC-0060          5113.960000 5.040000   0.000000   0.000000   0.000000  
CC-0065          5114.010000 8.190000   0.000000   0.000000   0.000000  
CC-0070          5114.170000 6.630000   0.000000   0.000000   0.000000  
CC-0075          5114.290000 5.210000   0.000000   0.000000   0.000000  
CC-0080          5114.520000 4.980000   0.000000   0.000000   0.000000  
CC-0085          5114.640000 10.860000  0.000000   0.000000   0.000000  
CC-0090          5114.760000 24.940000  0.000000   0.000000   0.000000  
CC-0095          5115.280000 22.320000  0.000000   0.000000   0.000000  
CC-0100          5115.440000 5.560000   0.000000   0.000000   0.000000  
CC-0105          5115.710000 5.690000   0.000000   0.000000   0.000000  
CC-0110          5115.880000 6.720000   0.000000   0.000000   0.000000  
CC-0115          5116.040000 7.660000   0.000000   0.000000   0.000000  
CC-0120          5116.210000 7.290000   0.000000   0.000000   0.000000  
CC-0125          5118.830000 6.170000   0.000000   0.000000   0.000000  
CC-0130          5119.670000 8.030000   0.000000   0.000000   0.000000  
CC-0135          5120.390000 9.210000   0.000000   0.000000   0.000000  
CC-0140          5121.020000 10.080000  0.000000   0.000000   0.000000  
CC-0145          5121.650000 8.790000   0.000000   0.000000   0.000000  
CC-0150          5126.860000 88.570000  0.000000   0.000000   0.000000  
CC-0155          5135.070000 9.350000   0.000000   0.000000   0.000000  
CC-0160          5135.820000 7.280000   0.000000   0.000000   0.000000  
CC-0165          5136.370000 6.730000   0.000000   0.000000   0.000000  
CC-0170          5136.460000 6.640000   0.000000   0.000000   0.000000  
CC-0175          5137.050000 12.050000  0.000000   0.000000   0.000000  
CC-0180          5137.550000 6.970000   0.000000   0.000000   0.000000  
CC-0185          5138.050000 5.200000   0.000000   0.000000   0.000000  
CC-0190          5138.160000 5.570000   0.000000   0.000000   0.000000  
CC-0195          5139.090000 9.280000   0.000000   0.000000   0.000000  
CC-0200          5139.750000 12.240000  0.000000   0.000000   0.000000  
CC-0205          5140.590000 21.080000  0.000000   0.000000   0.000000  
CC-0210          5141.140000 15.230000  0.000000   0.000000   0.000000  
CC-0215          5142.100000 10.840000  0.000000   0.000000   0.000000  
CC-0220          5142.970000 5.950000   0.000000   0.000000   0.000000  
CC-0225          5144.080000 8.710000   0.000000   0.000000   0.000000  
CC-0230          5148.090000 6.280000   0.000000   0.000000   0.000000  
CC-0235          5149.030000 5.220000   0.000000   0.000000   0.000000  
CC-0240          5149.780000 13.080000  0.000000   0.000000   0.000000  
CC-0245          5151.370000 7.170000   0.000000   0.000000   0.000000  
CC-0250          5157.490000 8.180000   0.000000   0.000000   0.000000  
CC-0255          5165.560000 6.910000   0.000000   0.000000   0.000000  
CC-0260          5173.950000 7.950000   0.000000   0.000000   0.000000  
CC-0265          5182.410000 8.090000   0.000000   0.000000   0.000000  
CC-0270          5183.380000 7.400000   0.000000   0.000000   0.000000  
CC-0275          5186.000000 9.980000   0.000000   0.000000   0.000000  
CC-0280          5188.140000 9.020000   0.000000   0.000000   0.000000  
CC-0285          5190.170000 7.080000   0.000000   0.000000   0.000000  
CC-0290          5192.360000 10.990000  0.000000   0.000000   0.000000  
CC-0295          5194.820000 15.290000  0.000000   0.000000   0.000000  
CC-0300          5196.380000 15.920000  0.000000   0.000000   0.000000  
CC-0305          5198.160000 17.100000  0.000000   0.000000   0.000000  
CC-0310          5199.420000 14.150000  0.000000   0.000000   0.000000  
CC-0315          5199.690000 14.700000  0.000000   0.000000   0.000000  
CC-0320          5200.650000 11.360000  0.000000   0.000000   0.000000  
CC-0325          5201.150000 10.450000  0.000000   0.000000   0.000000  
CC-0330          5203.770000 11.830000  0.000000   0.000000   0.000000  
CC-0335          5206.270000 11.290000  0.000000   0.000000   0.000000  
CC-0340          5207.360000 10.180000  0.000000   0.000000   0.000000  
CC-0345          5208.090000 10.900000  0.000000   0.000000   0.000000  
CC-0350          5208.760000 10.730000  0.000000   0.000000   0.000000  
CC-0355          5209.410000 11.730000  0.000000   0.000000   0.000000  
CC-0360          5210.560000 14.180000  0.000000   0.000000   0.000000  
CC-0365          5211.540000 15.740000  0.000000   0.000000   0.000000  
CC-0370          5211.940000 11.860000  0.000000   0.000000   0.000000  
CC-0375          5212.270000 11.020000  0.000000   0.000000   0.000000  
CC-0380          5212.620000 11.110000  0.000000   0.000000   0.000000  
CC-0385          5214.240000 10.810000  0.000000   0.000000   0.000000  
CC-0390          5215.470000 11.350000  0.000000   0.000000   0.000000  
CC-0395          5216.420000 13.720000  0.000000   0.000000   0.000000  
CC-0400          5217.300000 12.200000  0.000000   0.000000   0.000000  
CC-0405          5217.870000 12.230000  0.000000   0.000000   0.000000  
CC-0410          5218.590000 12.200000  0.000000   0.000000   0.000000  
CC-0415          5219.110000 12.180000  0.000000   0.000000   0.000000  
CC-0420          5219.790000 13.270000  0.000000   0.000000   0.000000  
CC-0425          5220.650000 11.260000  0.000000   0.000000   0.000000  
CC-0430          5221.780000 11.110000  0.000000   0.000000   0.000000  
CC-0435          5222.700000 8.320000   0.000000   0.000000   0.000000  
CC-0440          5223.570000 14.200000  0.000000   0.000000   0.000000  
CC-0445          5224.690000 16.050000  0.000000   0.000000   0.000000  
CC-0450          5225.560000 19.800000  0.000000   0.000000   0.000000  
CC-0455          5226.560000 17.350000  0.000000   0.000000   0.000000  
CC-0460          5227.490000 13.620000  0.000000   0.000000   0.000000  
CC-0465          5228.260000 13.000000  0.000000   0.000000   0.000000  
CC-0470          5229.050000 11.610000  0.000000   0.000000   0.000000  
CC-0475          5229.690000 14.070000  0.000000   0.000000   0.000000  
CC-0480          5230.510000 19.960000  0.000000   0.000000   0.000000  
CC-0485          5231.110000 12.830000  0.000000   0.000000   0.000000  
CC-0490          5231.700000 18.200000  0.000000   0.000000   0.000000  
CC-0495          5232.580000 17.910000  0.000000   0.000000   0.000000  
CC-0500          5233.430000 16.040000  0.000000   0.000000   0.000000  
CC-0505          5234.540000 12.920000  0.000000   0.000000   0.000000  
CC-0510          5235.310000 9.970000   0.000000   0.000000   0.000000  
CC-0515          5235.900000 10.880000  0.000000   0.000000   0.000000  
CC-0520          5236.670000 8.700000   0.000000   0.000000   0.000000  
CC-0525          5237.370000 6.350000   0.000000   0.000000   0.000000  
CC-0530          5238.080000 7.020000   0.000000   0.000000   0.000000  
CC-0535          5238.910000 7.680000   0.000000   0.000000   0.000000  
CC-0540          5232.200000 6.600000   0.000000   0.000000   0.000000  
CC-0545          5225.000000 11.900000  0.000000   0.000000   0.000000  
CC-0555          5206.110000 10.360000  0.000000   0.000000   0.000000  
CC-0560          5206.500000 11.870000  0.000000   0.000000   0.000000  
CC-0565          5207.490000 9.850000   0.000000   0.000000   0.000000  
CC-0570          5208.160000 12.300000  0.000000   0.000000   0.000000  
CC-0575          5208.730000 12.650000  0.000000   0.000000   0.000000  
CC-0580          5209.120000 14.960000  0.000000   0.000000   0.000000  
CC-0585          5209.750000 14.330000  0.000000   0.000000   0.000000  
CC-0590          5223.390000 6.860000   0.000000   0.000000   0.000000  
CC-0595          5232.960000 6.910000   0.000000   0.000000   0.000000  
CC-0600          5242.510000 6.290000   0.000000   0.000000   0.000000  
CC-0605          5205.080000 12.920000  0.000000   0.000000   0.000000  
CC-0610          5226.340000 19.020000  0.000000   0.000000   0.000000  
CC-0615          5224.300000 13.470000  0.000000   0.000000   0.000000  
CC-0620          5220.620000 12.440000  0.000000   0.000000   0.000000  
CC-0625          5219.070000 11.720000  0.000000   0.000000   0.000000  
CC-0630          5212.360000 14.920000  0.000000   0.000000   0.000000  
CC-0635          5212.480000 14.800000  0.000000   0.000000   0.000000  
CC-0640          5207.620000 9.940000   0.000000   0.000000   0.000000  
CC-0645          5207.630000 9.930000   0.000000   0.000000   0.000000  
CC-0650          5201.650000 10.360000  0.000000   0.000000   0.000000  
CC-0655          5195.670000 14.440000  0.000000   0.000000   0.000000  
CC-0660          5138.160000 5.810000   0.000000   0.000000   0.000000  
CC-0665          5138.930000 4.170000   0.000000   0.000000   0.000000  
CC-0670          5120.270000 7.730000   0.000000   0.000000   0.000000  
CC-0675          5121.100000 7.650000   0.000000   0.000000   0.000000  
CC-0680          5133.340000 13.160000  0.000000   0.000000   0.000000  
CC-0685          5134.520000 12.480000  0.000000   0.000000   0.000000  
CC-0690          5142.870000 8.380000   0.000000   0.000000   0.000000  
CC-0695          5143.040000 8.360000   0.000000   0.000000   0.000000  
CC-0700          5149.980000 7.720000   0.000000   0.000000   0.000000  
CC-0705          5160.950000 8.800000   0.000000   0.000000   0.000000  
CC-0710          5166.440000 11.560000  0.000000   0.000000   0.000000  
CC-0715          5181.630000 8.440000   0.000000   0.000000   0.000000  
CC-0720          5182.760000 8.500000   0.000000   0.000000   0.000000  
CC-0725          5182.750000 7.930000   0.000000   0.000000   0.000000  
CC-0730          5198.430000 8.160000   0.000000   0.000000   0.000000  
CC-0735          5209.220000 12.550000  0.000000   0.000000   0.000000  
CC-0740          5216.780000 10.880000  0.000000   0.000000   0.000000  
CC-0745          5224.280000 7.670000   0.000000   0.000000   0.000000  
CC-0750          5233.220000 13.300000  0.000000   0.000000   0.000000  
CC-0755          5250.140000 16.580000  0.000000   0.000000   0.000000  
CC-0760          5276.630000 16.450000  0.000000   0.000000   0.000000  
CC-0765          5277.530000 15.550000  0.000000   0.000000   0.000000  
CC-0770          5277.530000 15.550000  0.000000   0.000000   0.000000  
CC-0775          5290.340000 14.350000  0.000000   0.000000   0.000000  
CC-0780          5292.050000 12.640000  0.000000   0.000000   0.000000  
CC-0785          5293.820000 11.990000  0.000000   0.000000   0.000000  
CC-0790          5297.620000 17.050000  0.000000   0.000000   0.000000  
CC-0795          5298.480000 12.690000  0.000000   0.000000   0.000000  
CC-0800          5299.420000 9.510000   0.000000   0.000000   0.000000  
CC-0805          5300.040000 6.590000   0.000000   0.000000   0.000000  
CC-0810          5300.600000 13.440000  0.000000   0.000000   0.000000  
CC-0815          5301.900000 13.090000  0.000000   0.000000   0.000000  
CC-0820          5302.600000 5.820000   0.000000   0.000000   0.000000  
CC-0825          5303.100000 5.490000   0.000000   0.000000   0.000000  
CC-0830          5304.100000 12.120000  0.000000   0.000000   0.000000  
CC-0835          5304.640000 11.770000  0.000000   0.000000   0.000000  
CC-0840          5307.580000 5.420000   0.000000   0.000000   0.000000  
CC-0845          5309.780000 14.180000  0.000000   0.000000   0.000000  
CC-0850          5324.890000 8.270000   0.000000   0.000000   0.000000  
CC-0855          5339.450000 11.440000  0.000000   0.000000   0.000000  
CC-0860          5340.970000 11.650000  0.000000   0.000000   0.000000  
CC-0865          5349.660000 7.040000   0.000000   0.000000   0.000000  
CC-0870          5350.400000 8.850000   0.000000   0.000000   0.000000  
CC-0875          5351.370000 9.030000   0.000000   0.000000   0.000000  
CC-0880          5352.510000 9.290000   0.000000   0.000000   0.000000  
CC-0885          5353.520000 9.680000   0.000000   0.000000   0.000000  
CC-0890          5354.660000 8.940000   0.000000   0.000000   0.000000  
CC-0935          5261.140000 21.110000  0.000000   0.000000   0.000000  
CC-0940          5261.670000 19.830000  0.000000   0.000000   0.000000  
CC-0945          5263.110000 19.590000  0.000000   0.000000   0.000000  
CC-0950          5264.790000 16.710000  0.000000   0.000000   0.000000  
CC-0955          5266.050000 15.700000  0.000000   0.000000   0.000000  
CC-0960          5267.220000 15.280000  0.000000   0.000000   0.000000  
CC-0965          5267.650000 14.350000  0.000000   0.000000   0.000000  
CC-0970          5269.020000 15.230000  0.000000   0.000000   0.000000  
CC-0975          5269.730000 17.970000  0.000000   0.000000   0.000000  
CC-0980          5270.980000 13.820000  0.000000   0.000000   0.000000  
CC-0985          5271.710000 12.740000  0.000000   0.000000   0.000000  
CC-0990          5272.420000 11.830000  0.000000   0.000000   0.000000  
CC-0995          5273.120000 9.880000   0.000000   0.000000   0.000000  
CC-1000          5274.200000 10.000000  0.000000   0.000000   0.000000  
CC-1005          5274.250000 9.950000   0.000000   0.000000   0.000000  
CC-1010          5275.220000 8.280000   0.000000   0.000000   0.000000  
CC-1080          5220.070000 11.430000  0.000000   0.000000   0.000000  
CC-1085          5220.180000 11.520000  0.000000   0.000000   0.000000  
CC-1090          5222.060000 9.640000   0.000000   0.000000   0.000000  
CC-1095          5226.470000 16.380000  0.000000   0.000000   0.000000  
CC-1100          5227.700000 22.200000  0.000000   0.000000   0.000000  
CC-1105          5228.770000 22.230000  0.000000   0.000000   0.000000  
CC-1110          5229.970000 12.730000  0.000000   0.000000   0.000000  
CC-1115          5230.870000 6.130000   0.000000   0.000000   0.000000  
CC-1120          5231.760000 6.540000   0.000000   0.000000   0.000000  
CC-1125          5233.030000 7.870000   0.000000   0.000000   0.000000  
CC-1130          5231.560000 11.140000  0.000000   0.000000   0.000000  
CC-1135          5229.450000 20.450000  0.000000   0.000000   0.000000  
CC-1140          5273.020000 11.430000  0.000000   0.000000   0.000000  
CC-1145          5272.060000 12.740000  0.000000   0.000000   0.000000  
CC-1150          5270.840000 16.860000  0.000000   0.000000   0.000000  
CC-1155          5264.280000 17.180000  0.000000   0.000000   0.000000  
CC-1160          5267.020000 14.080000  0.000000   0.000000   0.000000  
CC-1165          5267.020000 14.080000  0.000000   0.000000   0.000000  
CC-1170          5263.030000 18.070000  0.000000   0.000000   0.000000  
CC-1175          5306.190000 10.220000  0.000000   0.000000   0.000000  
CC-1180          5304.600000 3.990000   0.000000   0.000000   0.000000  
CC-1185          5303.700000 4.720000   0.000000   0.000000   0.000000  
CC-1190          5302.980000 12.010000  0.000000   0.000000   0.000000  
CC-1195          5301.880000 12.160000  0.000000   0.000000   0.000000  
CC-1200          5301.000000 5.630000   0.000000   0.000000   0.000000  
CC-1205          5300.380000 8.550000   0.000000   0.000000   0.000000  
CC-1210          5292.050000 12.640000  0.000000   0.000000   0.000000  
CC-1215          5252.530000 14.190000  0.000000   0.000000   0.000000  
CC-1220          5251.830000 14.890000  0.000000   0.000000   0.000000  
CC-1225          5235.030000 11.490000  0.000000   0.000000   0.000000  
CC-1230          5235.050000 11.470000  0.000000   0.000000   0.000000  
CC-1235          5217.750000 9.910000   0.000000   0.000000   0.000000  
CC-1240          5217.750000 9.770000   0.000000   0.000000   0.000000  
CC-1245          5172.720000 13.280000  0.000000   0.000000   0.000000  
CC-1250          5184.470000 9.530000   0.000000   0.000000   0.000000  
CC-1255          5191.640000 14.360000  0.000000   0.000000   0.000000  
CC-1260          5207.130000 11.870000  0.000000   0.000000   0.000000  
CC-1265          5208.520000 8.480000   0.000000   0.000000   0.000000  
CC-1270          5217.080000 8.920000   0.000000   0.000000   0.000000  
CC-1275          5218.190000 15.790000  0.000000   0.000000   0.000000  
CC-1280          5217.220000 6.130000   0.000000   0.000000   0.000000  
CC-1305          5217.530000 4.470000   0.000000   0.000000   0.000000  
CC-1310          5219.710000 10.290000  0.000000   0.000000   0.000000  
CC-1315          5222.130000 9.870000   0.000000   0.000000   0.000000  
CC-1320          5222.380000 10.240000  0.000000   0.000000   0.000000  
CC-1325          5224.160000 13.840000  0.000000   0.000000   0.000000  
CC-1330          5224.850000 15.150000  0.000000   0.000000   0.000000  
CC-1335          5225.750000 13.250000  0.000000   0.000000   0.000000  
CC-1340          5226.480000 13.520000  0.000000   0.000000   0.000000  
CC-1345          5227.340000 15.660000  0.000000   0.000000   0.000000  
CC-1350          5228.070000 12.930000  0.000000   0.000000   0.000000  
CC-1355          5229.610000 19.390000  0.000000   0.000000   0.000000  
CC-1360          5230.200000 15.800000  0.000000   0.000000   0.000000  
CC-1365          5238.180000 12.820000  0.000000   0.000000   0.000000  
CC-1370          5249.800000 14.200000  0.000000   0.000000   0.000000  
CC-1375          5259.290000 13.710000  0.000000   0.000000   0.000000  
CC-1380          5270.080000 16.920000  0.000000   0.000000   0.000000  
CC-1385          5278.750000 13.250000  0.000000   0.000000   0.000000  
CC-1390          5284.600000 11.830000  0.000000   0.000000   0.000000  
CC-1395          5287.960000 10.040000  0.000000   0.000000   0.000000  
CC-1400          5292.230000 9.770000   0.000000   0.000000   0.000000  
CC-1405          5299.480000 9.520000   0.000000   0.000000   0.000000  
CC-1410          5299.800000 9.300000   0.000000   0.000000   0.000000  
CC-1415          5270.360000 16.640000  0.000000   0.000000   0.000000  
CC-1420          5272.050000 17.950000  0.000000   0.000000   0.000000  
CC-1425          5273.550000 12.450000  0.000000   0.000000   0.000000  
CC-1430          5274.380000 8.620000   0.000000   0.000000   0.000000  
CC-1435          5275.940000 7.060000   0.000000   0.000000   0.000000  
CC-1440          5276.740000 14.260000  0.000000   0.000000   0.000000  
CC-1445          5230.990000 11.010000  0.000000   0.000000   0.000000  
CC-1450          5231.710000 14.290000  0.000000   0.000000   0.000000  
CC-1455          5232.520000 16.480000  0.000000   0.000000   0.000000  
CC-1460          5233.390000 18.610000  0.000000   0.000000   0.000000  
CC-1465          5234.130000 14.870000  0.000000   0.000000   0.000000  
CC-1470          5234.640000 12.360000  0.000000   0.000000   0.000000  
CC-1475          5235.770000 8.230000   0.000000   0.000000   0.000000  
CC-1485          5234.940000 10.060000  0.000000   0.000000   0.000000  
CC-1490          5235.540000 7.460000   0.000000   0.000000   0.000000  
CC-1495          5235.930000 7.570000   0.000000   0.000000   0.000000  
CC-1500          5236.530000 7.090000   0.000000   0.000000   0.000000  
CC-1505          5236.570000 6.700000   0.000000   0.000000   0.000000  
CC-1510          5236.610000 6.650000   0.000000   0.000000   0.000000  
CC-1515          5236.900000 8.100000   0.000000   0.000000   0.000000  
CC-1520          5238.000000 10.580000  0.000000   0.000000   0.000000  
CC-1525          5237.540000 11.560000  0.000000   0.000000   0.000000  
CC-1530          5238.930000 10.590000  0.000000   0.000000   0.000000  
CC-1535          5237.680000 11.420000  0.000000   0.000000   0.000000  
CC-1540          5237.800000 11.300000  0.000000   0.000000   0.000000  
CC-1545          5236.570000 7.070000   0.000000   0.000000   0.000000  
CC-1550          5244.160000 12.840000  0.000000   0.000000   0.000000  
CC-1555          5259.350000 13.650000  0.000000   0.000000   0.000000  
CC-1560          5276.580000 12.420000  0.000000   0.000000   0.000000  
CC-1685          5143.120000 8.280000   0.000000   0.000000   0.000000  
CE-0005          5095.360000 9.900000   0.000000   0.000000   0.000000  
CE-0010          5102.700000 2.480000   0.000000   0.000000   0.000000  
CE-0015          5102.900000 4.200000   0.000000   0.000000   0.000000  
CE-0020          5103.400000 6.660000   0.000000   0.000000   0.000000  
CE-0025          5103.900000 7.200000   0.000000   0.000000   0.000000  
CE-0030          5104.400000 6.700000   0.000000   0.000000   0.000000  
CE-0035          5105.000000 7.530000   0.000000   0.000000   0.000000  
CE-0040          5105.400000 7.700000   0.000000   0.000000   0.000000  
CE-0045          5106.000000 8.820000   0.000000   0.000000   0.000000  
CE-0050          5112.300000 7.110000   0.000000   0.000000   0.000000  
CE-0055          5121.100000 7.360000   0.000000   0.000000   0.000000  
CE-0060          5123.100000 6.000000   0.000000   0.000000   0.000000  
CE-0065          5124.900000 4.200000   0.000000   0.000000   0.000000  
CE-0070          5125.500000 3.690000   0.000000   0.000000   0.000000  
CE-0075          5126.480000 6.620000   0.000000   0.000000   0.000000  
CE-0080          5127.200000 6.940000   0.000000   0.000000   0.000000  
CE-0085          5114.300000 8.800000   0.000000   0.000000   0.000000  
CE-0090          5119.300000 7.910000   0.000000   0.000000   0.000000  
CE-0095          5120.800000 9.740000   0.000000   0.000000   0.000000  
CE-0100          5114.300000 8.800000   0.000000   0.000000   0.000000  
CE-0105          5119.500000 7.600000   0.000000   0.000000   0.000000  
CE-0110          5125.500000 7.480000   0.000000   0.000000   0.000000  
CE-0115          5115.100000 7.350000   0.000000   0.000000   0.000000  
CE-0120          5120.000000 7.100000   0.000000   0.000000   0.000000  
CE-0125          5109.000000 8.100000   0.000000   0.000000   0.000000  
CE-0130          5114.000000 9.930000   0.000000   0.000000   0.000000  
CE-0135          5108.000000 9.550000   0.000000   0.000000   0.000000  
CE-0140          5105.800000 7.300000   0.000000   0.000000   0.000000  
CE-0145          5095.640000 12.150000  0.000000   0.000000   0.000000  
CE-0150          5095.900000 16.390000  0.000000   0.000000   0.000000  
CE-0155          5104.150000 8.950000   0.000000   0.000000   0.000000  
CE-0160          5106.060000 7.040000   0.000000   0.000000   0.000000  
CE-0165          5110.800000 9.320000   0.000000   0.000000   0.000000  
CE-0170          5113.800000 8.910000   0.000000   0.000000   0.000000  
CE-0175          5116.900000 7.420000   0.000000   0.000000   0.000000  
CE-0180          5117.200000 7.350000   0.000000   0.000000   0.000000  
CE-0185          5118.300000 8.600000   0.000000   0.000000   0.000000  
CE-0190          5119.000000 10.760000  0.000000   0.000000   0.000000  
CE-0195          5123.200000 8.880000   0.000000   0.000000   0.000000  
CE-0200          5118.600000 6.120000   0.000000   0.000000   0.000000  
CE-0205          5109.000000 6.100000   0.000000   0.000000   0.000000  
CE-0210          5110.900000 6.200000   0.000000   0.000000   0.000000  
CE-0215          5114.200000 10.140000  0.000000   0.000000   0.000000  
CE-0220          5117.970000 9.730000   0.000000   0.000000   0.000000  
CE-0225          5121.000000 7.590000   0.000000   0.000000   0.000000  
CE-0230          5124.700000 6.400000   0.000000   0.000000   0.000000  
CE-0235          5125.900000 7.200000   0.000000   0.000000   0.000000  
CE-0240          5125.600000 2.510000   0.000000   0.000000   0.000000  
CE-0245          5096.000000 11.100000  0.000000   0.000000   0.000000  
CE-0250          5096.030000 10.290000  0.000000   0.000000   0.000000  
CE-0255          5096.270000 7.580000   0.000000   0.000000   0.000000  
CE-0260          5096.600000 5.120000   0.000000   0.000000   0.000000  
CE-0265          5096.640000 5.040000   0.000000   0.000000   0.000000  
CE-0270          5101.100000 8.500000   0.000000   0.000000   0.000000  
CE-0275          5105.700000 11.380000  0.000000   0.000000   0.000000  
CE-0280          5109.400000 13.700000  0.000000   0.000000   0.000000  
CE-0285          5116.800000 6.300000   0.000000   0.000000   0.000000  
CE-0290          5117.000000 6.100000   0.000000   0.000000   0.000000  
CE-0295          5118.700000 6.400000   0.000000   0.000000   0.000000  
CE-0300          5123.500000 9.770000   0.000000   0.000000   0.000000  
CE-0305          5124.600000 11.020000  0.000000   0.000000   0.000000  
CE-0310          5127.600000 10.510000  0.000000   0.000000   0.000000  
CE-0315          5129.800000 11.690000  0.000000   0.000000   0.000000  
CE-0320          5096.800000 4.500000   0.000000   0.000000   0.000000  
CE-0325          5099.900000 3.200000   0.000000   0.000000   0.000000  
CE-0330          5100.400000 4.700000   0.000000   0.000000   0.000000  
CE-0335          5103.300000 9.610000   0.000000   0.000000   0.000000  
CE-0340          5115.240000 3.860000   0.000000   0.000000   0.000000  
CE-0345          5121.600000 5.500000   0.000000   0.000000   0.000000  
CE-0350          5097.300000 4.300000   0.000000   0.000000   0.000000  
CE-0355          5101.200000 1.900000   0.000000   0.000000   0.000000  
CE-0360          5101.600000 1.500000   0.000000   0.000000   0.000000  
CE-0365          5102.000000 3.890000   0.000000   0.000000   0.000000  
CE-0370          5105.400000 7.160000   0.000000   0.000000   0.000000  
CE-0375          5109.250000 5.850000   0.000000   0.000000   0.000000  
CE-0376          5115.240000 3.860000   0.000000   0.000000   0.000000  
CE-0380          5113.200000 6.000000   0.000000   0.000000   0.000000  
CE-0385          5113.900000 6.660000   0.000000   0.000000   0.000000  
CE-0390          5097.900000 5.200000   0.000000   0.000000   0.000000  
CE-0395          5102.100000 2.370000   0.000000   0.000000   0.000000  
CE-0400          5102.500000 3.730000   0.000000   0.000000   0.000000  
CE-0405          5102.870000 4.230000   0.000000   0.000000   0.000000  
CE-0410          5103.200000 7.900000   0.000000   0.000000   0.000000  
CE-0415          5109.000000 2.100000   0.000000   0.000000   0.000000  
CE-0420          5109.700000 3.400000   0.000000   0.000000   0.000000  
CE-0425          5110.500000 2.600000   0.000000   0.000000   0.000000  
CE-0430          5111.000000 5.490000   0.000000   0.000000   0.000000  
CE-0435          5113.100000 8.000000   0.000000   0.000000   0.000000  
CE-0440          5116.400000 8.700000   0.000000   0.000000   0.000000  
CE-0445          5120.000000 5.100000   0.000000   0.000000   0.000000  