[TITLE]
;;Project Title/Notes
Scenario Run :  BASE

[OPTIONS]
;;Option             Value
FLOW_UNITS           CMS
INFILTRATION         HORTON
FLOW_ROUTING         DYNWAVE
LINK_OFFSETS         DEPTH
MIN_SLOPE            0
ALLOW_PONDING        NO
SKIP_STEADY_STATE    NO

START_DATE           02/18/2013
START_TIME           00:00:00
REPORT_START_DATE    02/18/2013
REPORT_START_TIME    00:00:00
END_DATE             02/18/2013
END_TIME             03:00:00
SWEEP_START          01/01
SWEEP_END            12/31
DRY_DAYS             0.000000
REPORT_STEP          00:00:10
WET_STEP             00:05:00
DRY_STEP             01:00:00
ROUTING_STEP         0:00:04 

INERTIAL_DAMPING     NONE
NORMAL_FLOW_LIMITED  BOTH
FORCE_MAIN_EQUATION  H-W
VARIABLE_STEP        0.75
LENGTHENING_STEP     5
MIN_SURFAREA         1.14
MAX_TRIALS           8
HEAD_TOLERANCE       0.0015
SYS_FLOW_TOL         5
LAT_FLOW_TOL         5
MINIMUM_STEP         0
THREADS              1

[FILES]
;;Interfacing Files
SAVE HOTSTART "D:\2016PC\Desktop_July2012\NewHS.hsf"
USE HOTSTART "D:\2016PC\Desktop_July2012\OldHS.hsf"

[EVAPORATION]
;;Data Source    Parameters
;;-------------- ----------------
CONSTANT         0.000000
DRY_ONLY         NO

[JUNCTIONS]
;;Name           Elevation  MaxDepth   InitDepth  SurDepth   Aponded   
;;-------------- ---------- ---------- ---------- ---------- ----------
34               283.768800 102.133600 0.000000   999.000000 0.000000  
35               284.530800 100.000000 0.000000   999.000000 0.000000  
36               284.530800 100.000000 0.000000   999.000000 0.000000  
37               288.645600 103.352800 0.000000   999.000000 0.000000  
38               285.597600 100.000000 0.000000   999.000000 0.000000  
39               285.597600 100.000000 0.000000   999.000000 0.000000  
40               291.084000 100.000000 0.000000   999.000000 0.000000  
41               291.084000 102.133600 0.000000   999.000000 0.000000  
42               290.322000 100.000000 0.000000   999.000000 0.000000  
43               289.255200 100.000000 0.000000   999.000000 0.000000  
44               288.950400 100.000000 0.000000   999.000000 0.000000  
45               287.121600 100.000000 0.000000   999.000000 0.000000  
46               286.816800 100.000000 0.000000   999.000000 0.000000  
47               290.169600 100.000000 0.000000   999.000000 0.000000  
48               291.388800 102.133600 0.000000   999.000000 0.000000  
49               290.779200 100.000000 0.000000   999.000000 0.000000  
50               288.340800 100.000000 0.000000   999.000000 0.000000  
51               290.626800 100.000000 0.000000   999.000000 0.000000  
52               290.779200 100.000000 0.000000   999.000000 0.000000  
53               297.180000 102.438400 0.000000   999.000000 0.000000  
54               295.960800 100.000000 0.000000   999.000000 0.000000  
55               297.180000 100.000000 0.000000   999.000000 0.000000  
56               300.228000 102.743200 0.000000   999.000000 0.000000  
57               297.789600 100.000000 0.000000   999.000000 0.000000  
58               299.313600 100.000000 0.000000   999.000000 0.000000  
59               303.276000 99.695200  0.000000   999.000000 0.000000  
60               303.276000 102.438400 0.000000   999.000000 0.000000  
61               301.904400 100.000000 0.000000   999.000000 0.000000  
62               301.904400 100.000000 0.000000   999.000000 0.000000  
63               302.971200 102.743200 0.000000   999.000000 0.000000  
64               302.818800 100.000000 0.000000   999.000000 0.000000  
65               301.142400 100.000000 0.000000   999.000000 0.000000  
66               301.142400 100.000000 0.000000   999.000000 0.000000  
67               299.770800 100.000000 0.000000   999.000000 0.000000  
68               299.770800 104.724400 0.000000   999.000000 0.000000  
DUMMY            300.075600 104.724400 0.000000   0.000000   0.000000  

[OUTFALLS]
;;Name           Elevation  Type       Stage Data       Gated    Route To        
;;-------------- ---------- ---------- ---------------- -------- ----------------
33               282.244800 FREE                        NO                       

[STORAGE]
;;Name           Elev.    MaxDepth   InitDepth  Shape      Curve Name/Params            N/A      Fevap    Psi      Ksat     IMD     
;;-------------- -------- ---------- ----------- ---------- ---------------------------- -------- --------          -------- --------
WELWYN           296.113200 5.000000   0.000000   FUNCTIONAL 2.000000  0.000000  0.000000 0.000000 0.000000

[CONDUITS]
;;Name           From Node        To Node          Length     Roughness  InOffset   OutOffset  InitFlow   MaxFlow   
;;-------------- ---------------- ---------------- ---------- ---------- ---------- ---------- ---------- ----------
33.1             33               34               254.819806 0.012000   0.000000   0.000000   0.000000   0.000000  
34.1             34               35               41.910031  0.012000   0.000000   0.000000   0.000000   0.000000  
35.1             35               36               72.707340  0.012000   0.000000   0.000000   0.000000   0.000000  
36.1             36               37               53.340575  0.012000   0.000000   0.000000   0.000000   0.000000  
37.1             37               38               38.102833  0.012000   0.000000   0.000000   0.000000   0.000000  
38.1             38               39               22.862761  0.012000   0.000000   0.000000   0.000000   0.000000  
39.1             39               40               118.265353 0.012000   0.000000   0.000000   0.000000   0.000000  
40.1             40               41               14.195892  0.012000   0.000000   0.000000   0.000000   0.000000  
41.1             41               42               17.536747  0.012000   0.000000   0.000000   0.000000   0.000000  
42.1             42               43               10.667943  0.012000   0.000000   0.000000   0.000000   0.000000  
43.1             43               44               15.849609  0.012000   0.000000   0.000000   0.000000   0.000000  
44.1             44               45               37.489994  0.012000   0.000000   0.000000   0.000000   0.000000  
45.1             45               46               118.380608 0.012000   0.000000   0.000000   0.000000   0.000000  
46.1             46               47               51.815946  0.012000   0.000000   0.000000   0.000000   0.000000  
47.1             47               48               59.134954  0.012000   0.000000   0.000000   0.000000   0.000000  
48.1             48               49               20.725728  0.012000   0.000000   0.000000   0.000000   0.000000  
49.1             49               50               30.010851  0.012000   0.000000   0.000000   0.000000   0.000000  
50.1             50               51               30.542561  0.012000   0.000000   0.000000   0.000000   0.000000  
51.1             51               52               10.324644  0.012000   0.000000   0.000000   0.000000   0.000000  
52.1             52               53               88.594514  0.012000   0.000000   0.000000   0.000000   0.000000  
53.1             53               54               42.007205  0.012000   0.000000   0.000000   0.000000   0.000000  
54.1             54               55               59.741948  0.012000   0.000000   0.000000   0.000000   0.000000  
55.1             55               56               69.303588  0.012000   0.000000   0.000000   0.000000   0.000000  
56.1             56               57               68.581244  0.012000   0.000000   0.000000   0.000000   0.000000  
57.1             58               57               16.154380  0.012000   0.000000   0.000000   0.000000   0.000000  
58.1             59               58               64.622643  0.012000   0.000000   0.000000   0.000000   0.000000  
59.1             60               59               2.960480   0.012000   0.000000   0.000000   0.000000   0.000000  
60.1             61               60               31.356123  0.012000   0.000000   0.000000   0.000000   0.000000  
61.1             62               61               38.099857  0.012000   0.000000   0.000000   0.000000   0.000000  
62.1             63               62               38.098908  0.012000   0.000000   0.000000   0.000000   0.000000  
63.1             64               63               22.859971  0.012000   0.000000   0.000000   0.000000   0.000000  
64.1             65               64               30.480001  0.012000   0.000000   0.000000   0.000000   0.000000  
65.1             66               65               152.444116 0.012000   0.000000   0.000000   0.000000   0.000000  
66.1             67               66               28.957225  0.012000   0.000000   0.000000   0.000000   0.000000  
67.1             68               67               73.874232  0.012000   0.000000   0.000000   0.000000   0.000000  
DUMMY.1          DUMMY            WELWYN           3.048000   0.012000   0.000000   0.000000   0.000000   0.000000  

[PUMPS]
;;Name           From Node        To Node          Pump Curve       Status   Sartup Shutoff 
;;-------------- ---------------- ---------------- ---------------- ------ -------- --------
WELWYN.1         WELWYN           68               WELWYN.1         ON       2.000000 1.000000

[XSECTIONS]
;;Link           Shape        Geom1            Geom2      Geom3      Geom4      Barrels    Culvert   
;;-------------- ------------ ---------------- ---------- ---------- ---------- ---------- ----------
33.1             CIRCULAR     0.304800         0.000000   0.000000   0.000000   1          0         
34.1             CIRCULAR     0.304800         0.000000   0.000000   0.000000   1          0         
35.1             CIRCULAR     0.304800         0.000000   0.000000   0.000000   1          0         
36.1             CIRCULAR     0.304800         0.000000   0.000000   0.000000   1          0         
37.1             CIRCULAR     0.304800         0.000000   0.000000   0.000000   1          0         
38.1             CIRCULAR     0.304800         0.000000   0.000000   0.000000   1          0         
39.1             CIRCULAR     0.304800         0.000000   0.000000   0.000000   1          0         
40.1             CIRCULAR     0.304800         0.000000   0.000000   0.000000   1          0         
41.1             CIRCULAR     0.304800         0.000000   0.000000   0.000000   1          0         
42.1             CIRCULAR     0.304800         0.000000   0.000000   0.000000   1          0         
43.1             CIRCULAR     0.304800         0.000000   0.000000   0.000000   1          0         
44.1             CIRCULAR     0.304800         0.000000   0.000000   0.000000   1          0         
45.1             CIRCULAR     0.304800         0.000000   0.000000   0.000000   1          0         
46.1             CIRCULAR     0.304800         0.000000   0.000000   0.000000   1          0         
47.1             CIRCULAR     0.304800         0.000000   0.000000   0.000000   1          0         
48.1             CIRCULAR     0.304800         0.000000   0.000000   0.000000   1          0         
49.1             CIRCULAR     0.304800         0.000000   0.000000   0.000000   1          0         
50.1             CIRCULAR     0.304800         0.000000   0.000000   0.000000   1          0         
51.1             CIRCULAR     0.304800         0.000000   0.000000   0.000000   1          0         
52.1             CIRCULAR     0.304800         0.000000   0.000000   0.000000   1          0         
53.1             CIRCULAR     0.304800         0.000000   0.000000   0.000000   1          0         
54.1             CIRCULAR     0.304800         0.000000   0.000000   0.000000   1          0         
55.1             CIRCULAR     0.304800         0.000000   0.000000   0.000000   1          0         
56.1             CIRCULAR     0.304800         0.000000   0.000000   0.000000   1          0         
57.1             CIRCULAR     0.304800         0.000000   0.000000   0.000000   1          0         
58.1             CIRCULAR     0.304800         0.000000   0.000000   0.000000   1          0         
59.1             CIRCULAR     0.304800         0.000000   0.000000   0.000000   1          0         
60.1             CIRCULAR     0.304800         0.000000   0.000000   0.000000   1          0         
61.1             CIRCULAR     0.304800         0.000000   0.000000   0.000000   1          0         
62.1             CIRCULAR     0.304800         0.000000   0.000000   0.000000   1          0         
63.1             CIRCULAR     0.304800         0.000000   0.000000   0.000000   1          0         
64.1             CIRCULAR     0.304800         0.000000   0.000000   0.000000   1          0         
65.1             CIRCULAR     0.304800         0.000000   0.000000   0.000000   1          0         
66.1             CIRCULAR     0.304800         0.000000   0.000000   0.000000   1          0         
67.1             CIRCULAR     0.304800         0.000000   0.000000   0.000000   1          0         
DUMMY.1          CIRCULAR     0.609600         0.000000   0.000000   0.000000   1          0         

[LOSSES]
;;Link           Kentry     Kexit      Kavg       Flap Gate  Seepage   
;;-------------- ---------- ---------- ---------- ---------- ----------
33.1             0.000000   0.000000   0.000000   NO         0         
34.1             0.000000   0.000000   0.000000   NO         0         
35.1             0.000000   0.000000   0.000000   NO         0         
36.1             0.000000   0.000000   0.000000   NO         0         
37.1             0.000000   0.000000   0.000000   NO         0         
38.1             0.000000   0.000000   0.000000   NO         0         
39.1             0.000000   0.000000   0.000000   NO         0         
40.1             0.000000   0.000000   0.000000   NO         0         
41.1             0.000000   0.000000   0.000000   NO         0         
42.1             0.000000   0.000000   0.000000   NO         0         
43.1             0.000000   0.000000   0.000000   NO         0         
44.1             0.000000   0.000000   0.000000   NO         0         
45.1             0.000000   0.000000   0.000000   NO         0         
46.1             0.000000   0.000000   0.000000   NO         0         
47.1             0.000000   0.000000   0.000000   NO         0         
48.1             0.000000   0.000000   0.000000   NO         0         
49.1             0.000000   0.000000   0.000000   NO         0         
50.1             0.000000   0.000000   0.000000   NO         0         
51.1             0.000000   0.000000   0.000000   NO         0         
52.1             0.000000   0.000000   0.000000   NO         0         
53.1             0.000000   0.000000   0.000000   NO         0         
54.1             0.000000   0.000000   0.000000   NO         0         
55.1             0.000000   0.000000   0.000000   NO         0         
56.1             0.000000   0.000000   0.000000   NO         0         
57.1             0.000000   0.000000   0.000000   YES        0         
58.1             0.000000   0.000000   0.000000   YES        0         
59.1             0.000000   0.000000   0.000000   YES        0         
60.1             0.000000   0.000000   0.000000   YES        0         
61.1             0.000000   0.000000   0.000000   YES        0         
62.1             0.000000   0.000000   0.000000   YES        0         
63.1             0.000000   0.000000   0.000000   YES        0         
64.1             0.000000   0.000000   0.000000   YES        0         
65.1             0.000000   0.000000   0.000000   YES        0         
66.1             0.000000   0.000000   0.000000   YES        0         
67.1             0.000000   0.000000   0.000000   YES        0         
DUMMY.1          0.000000   0.000000   0.000000   YES        0         

[CONTROLS]
RULE WELWYN.1_ON
IF NODE WELWYN HEAD >= 298.856400
THEN PUMP WELWYN.1 STATUS = ON


RULE WELWYN.1_OFF
IF NODE WELWYN HEAD <= 297.942000
THEN PUMP WELWYN.1 STATUS = OFF






[INFLOWS]
;;Node           Constituent      Time Series      Type     Mfactor  Sfactor  Baseline Pattern
;;-------------- ---------------- ---------------- -------- -------- -------- -------- --------
DUMMY            FLOW             ""               FLOW     1.0      1.000000 0.013000

[CURVES]
;;Name           Type       X-Value    Y-Value   
;;-------------- ---------- ---------- ----------
WELWYN.1         PUMP3      24.384001  0.189270  
WELWYN.1                    36.271198  0.134066  
WELWYN.1                    67.056000  0.000000  

[REPORT]
;;Reporting Options
INPUT      NO
CONTROLS   NO
SUBCATCHMENTS ALL
NODES ALL
LINKS ALL

[TAGS]

[MAP]
DIMENSIONS 701443.594 451924.458 702227.914 453188.498
Units      None

[COORDINATES]
;;Node           X-Coord            Y-Coord           
;;-------------- ------------------ ------------------
34               701983.866         452122.108        
35               701950.218         452147.094        
36               701890.669         452188.255        
37               701840.033         452187.646        
38               701802.054         452190.677        
39               701781.831         452197.022        
40               701786.125         452298.197        
41               701794.896         452309.355        
42               701805.333         452323.448        
43               701810.698         452332.318        
44               701809.904         452348.148        
45               701808.037         452380.042        
46               701717.752         452435.444        
47               701688.236         452458.114        
48               701629.572         452465.535        
49               701609.011         452468.141        
50               701579.217         452465.345        
51               701549.074         452464.857        
52               701539.123         452467.477        
53               701485.911         452532.283        
54               701479.291         452573.427        
55               701492.324         452630.018        
56               701506.024         452695.846        
57               701494.488         452762.846        
58               701496.054         452778.925        
59               701509.118         452839.988        
60               701511.259         452842.031        
61               701538.044         452857.726        
62               701570.229         452875.991        
63               701582.273         452911.592        
64               701583.751         452934.404        
65               701585.721         452964.821        
66               701576.430         453090.460        
67               701586.354         453110.803        
68               701652.831         453126.442        
DUMMY            701653.471         453131.042        
33               702192.263         451981.914        
WELWYN           701653.440         453130.128        

[VERTICES]
;;Link           X-Coord            Y-Coord           
;;-------------- ------------------ ------------------
33.1             702089.878         452026.421        
33.1             702040.890         452077.525        
33.1             701993.823         452114.714        
35.1             701901.436         452183.319        
35.1             701894.760         452187.197        
36.1             701871.371         452193.226        
36.1             701862.756         452186.935        
36.1             701849.040         452187.066        
36.1             701844.775         452187.237        
37.1             701807.530         452190.421        
38.1             701786.574         452191.386        
39.1             701780.963         452198.049        
39.1             701774.124         452206.642        
39.1             701767.109         452216.112        
39.1             701761.410         452225.318        
39.1             701756.850         452234.099        
39.1             701757.289         452257.672        
39.1             701769.015         452277.091        
40.1             701792.010         452305.458        
42.1             701810.775         452330.796        
44.1             701809.471         452356.773        
44.1             701816.847         452368.529        
44.1             701811.436         452378.268        
45.1             701749.431         452410.625        
45.1             701715.264         452418.387        
46.1             701720.539         452454.559        
47.1             701669.319         452460.195        
48.1             701620.293         452466.782        
49.1             701605.683         452468.542        
50.1             701557.884         452462.767        
51.1             701539.880         452467.037        
52.1             701537.106         452468.650        
52.1             701504.255         452487.755        
52.1             701500.930         452494.720        
52.1             701493.067         452511.187        
52.1             701490.436         452517.853        
52.1             701487.596         452526.319        
53.1             701479.719         452554.183        
54.1             701479.245         452575.468        
54.1             701483.882         452588.590        
54.1             701482.585         452610.703        
55.1             701506.895         452658.915        
56.1             701506.002         452696.774        
56.1             701505.616         452698.115        
56.1             701503.681         452704.828        
56.1             701495.372         452739.114        
56.1             701493.255         452750.190        
58.1             701501.252         452832.286        
59.1             701510.518         452841.379        
60.1             701519.571         452849.342        
61.1             701568.113         452871.374        
62.1             701581.570         452900.743        
65.1             701576.297         453075.221        
66.1             701576.598         453109.585        
67.1             701652.228         453118.967        

