[TITLE]
;;Project Title/Notes
\

[OPTIONS]
;;Option             Value
FLOW_UNITS           CFS
INFILTRATION         GREEN_AMPT
FLOW_ROUTING         DYNWAVE
LINK_OFFSETS         DEPTH
MIN_SLOPE            0
ALLOW_PONDING        YES
SKIP_STEADY_STATE    YES

START_DATE           08/01/2009
START_TIME           00:00:00
REPORT_START_DATE    08/01/2009
REPORT_START_TIME    00:00:00
END_DATE             08/05/2009
END_TIME             23:00:00
SWEEP_START          01/01
SWEEP_END            12/31
DRY_DAYS             5.000000
REPORT_STEP          00:10:00
WET_STEP             00:01:00
DRY_STEP             00:05:00
ROUTING_STEP         0:00:05 

INERTIAL_DAMPING     NONE
NORMAL_FLOW_LIMITED  SLOPE
FORCE_MAIN_EQUATION  H-W
VARIABLE_STEP        0.75
LENGTHENING_STEP     5
MIN_SURFAREA         0
MAX_TRIALS           0
HEAD_TOLERANCE       0
SYS_FLOW_TOL         5
LAT_FLOW_TOL         5
MINIMUM_STEP         0.5
THREADS              1

[EVAPORATION]
;;Data Source    Parameters
;;-------------- ----------------
CONSTANT         0.000000
DRY_ONLY         NO

[RAINGAGES]
;;Name           Format    Interval SCF      Source    
;;-------------- --------- ------ ------ ----------
TEST-1           VOLUME    0:05     1.000000 TIMESERIES MDEQTYPEII_100  

[SUBCATCHMENTS]
;;Name           Rain Gage        Outlet           Area     %Imperv  Width    %Slope   CurbLen  SnowPack        
;;-------------- ---------------- ---------------- -------- -------- -------- -------- -------- ----------------
1040             TEST-1           27140            5.968047 50.000000 1299.830000 1.720000 0.000000                 
1044             TEST-1           27139            11.959919 40.000000 2604.850000 1.545000 0.000000                 
1067             TEST-1           27178            2.686292 45.000000 585.070000 1.120000 0.000000                 
1069             TEST-1           27170            4.433719 45.000000 965.660000 1.200000 0.000000                 
1072             TEST-1           27152            6.640217 50.000000 1446.230000 1.055000 0.000000                 
1073             TEST-1           27173            2.483421 57.000000 540.880000 1.355000 0.000000                 
1075             TEST-1           09192508         28.400000 26.000000 6185.470000 1.210000 0.000000                 
1076             TEST-1           09191571         9.950000 50.000000 2167.090000 0.750000 0.000000                 
1094             TEST-1           35254            9.639676 53.000000 2099.510000 0.970000 0.000000                 
1096             TEST-1           27131            8.979427 12.000000 1955.700000 2.175000 0.000000                 
1105             TEST-1           27191            7.326214 36.000000 1595.640000 2.250000 0.000000                 
1108             TEST-1           27125            14.357780 17.000000 3127.100000 2.200000 0.000000                 
1112             TEST-1           27205            15.357915 39.000000 3344.930000 2.030000 0.000000                 
1121             TEST-1           27195            5.683217 18.000000 1237.800000 4.020000 0.000000                 
1122             TEST-1           93-49710         37.500000 2.000000 1800.000000 1.285000 0.000000                 
1145             TEST-1           39074            8.36     30       1821     4.250000 0.000000                 
1149             TEST-1           37196            22.250000 29.000000 600.000000 4.440000 0.000000                 
1151             TEST-1           93-90329         3.785798 37.000000 824.540000 3.395000 0.000000                 
1152             TEST-1           32151            4.962855 31.000000 1080.900000 3.845000 0.000000                 
1154             TEST-1           27339            3.680000 9.000000 801.500000 5.670000 0.000000                 
1173             TEST-1           93-90331         9.45     25       2058     3.290000 0.000000                 
1174             TEST-1           93-90330         5.457924 38.000000 1188.730000 4.700000 0.000000                 
1180             TEST-1           37099            15.91    10.000000 1550     4.410000 0.000000                 
1186             TEST-1           27420            3.371109 40.000000 734.220000 4.105000 0.000000                 
1187             TEST-1           93-50324         2.743416 22.000000 597.510000 1.730000 0.000000                 
1195             TEST-1           09184515         2.025687 33.000000 441.190000 5.360000 0.000000                 
1197             TEST-1           44482            61.947413 1.000000 2100.000000 3.045000 0.000000                 
1203             TEST-1           37097_2          17.138370 22.000000 3732.710000 3.515000 0.000000                 
1209             TEST-1           09184504         18.165682 25.000000 3956.450000 4.285000 0.000000                 
1210             TEST-1           27398            5.510895 36.000000 1200.260000 4.970000 0.000000                 
1229             TEST-1           93-50325         1.678017 9.000000 365.470000 6.605000 0.000000                 
1233             TEST-1           27555            29.142388 26.000000 6347.160000 4.115000 0.000000                 
1249             TEST-1           27540            17.358475 27.000000 3780.650000 3.735000 0.000000                 
1252             TEST-1           36504_1          32.3     11.000000 1500     5.095000 0.000000                 
1272             TEST-1           27536            38.916090 26.000000 8475.860000 2.165000 0.000000                 
1282             TEST-1           90169            16.561897 34.000000 3607.150000 2.335000 0.000000                 
1284             TEST-1           43155            7.870213 18.000000 1714.120000 5.390000 0.000000                 
1303             TEST-1           43154_2          35.823057 9.000000 7802.200000 3.960000 0.000000                 
1406             TEST-1           27159            5.969100 47.000000 1300.060000 1.355000 0.000000                 
1407             TEST-1           27150            2.299779 63.000000 500.890000 0.780000 0.000000                 
1408             TEST-1           27200            17.579047 18.000000 3828.690000 1.495000 0.000000                 
1409             TEST-1           39081            3.871599 46.000000 843.230000 3.260000 0.000000                 
1600             TEST-1           93-50439         3.130000 0.000000 681.710000 1.000000 0.000000                 
1601             TEST-1           37109            28.800000 5.000000 1000.000000 1.000000 0.000000                 
1602             TEST-1           37035_1          14.58    11       1070     5.09     0                        

[SUBAREAS]
;;Subcatchment   N-Imperv   N-Perv     S-Imperv   S-Perv     PctZero    RouteTo    PctRouted 
;;-------------- ---------- ---------- ---------- ---------- ---------- ---------- ----------
1040             0.013000   0.200000   0.080000   0.200000   25.000000  PERVIOUS   25.000000 
1044             0.013000   0.200000   0.080000   0.200000   25.000000  PERVIOUS   25.000000 
1067             0.013000   0.200000   0.080000   0.200000   25.000000  PERVIOUS   25.000000 
1069             0.013000   0.200000   0.080000   0.200000   25.000000  PERVIOUS   25.000000 
1072             0.013000   0.200000   0.080000   0.200000   25.000000  PERVIOUS   25.000000 
1073             0.013000   0.200000   0.080000   0.200000   25.000000  PERVIOUS   25.000000 
1075             0.013000   0.200000   0.080000   0.200000   25.000000  PERVIOUS   25.000000 
1076             0.013000   0.200000   0.080000   0.200000   25.000000  PERVIOUS   25.000000 
1094             0.013000   0.200000   0.080000   0.200000   25.000000  PERVIOUS   25.000000 
1096             0.013000   0.200000   0.080000   0.200000   25.000000  PERVIOUS   25.000000 
1105             0.013000   0.200000   0.080000   0.200000   25.000000  PERVIOUS   25.000000 
1108             0.013000   0.200000   0.080000   0.200000   25.000000  PERVIOUS   25.000000 
1112             0.013000   0.200000   0.080000   0.200000   25.000000  PERVIOUS   25.000000 
1121             0.013000   0.200000   0.080000   0.200000   25.000000  PERVIOUS   25.000000 
1122             0.013000   0.200000   0.080000   0.200000   25.000000  PERVIOUS   25.000000 
1145             0.013000   0.200000   0.080000   0.200000   25.000000  PERVIOUS   25.000000 
1149             0.013000   0.200000   0.080000   0.200000   25.000000  PERVIOUS   25.000000 
1151             0.013000   0.200000   0.080000   0.200000   25.000000  PERVIOUS   25.000000 
1152             0.013000   0.200000   0.080000   0.200000   25.000000  PERVIOUS   25.000000 
1154             0.013000   0.200000   0.080000   0.200000   25.000000  PERVIOUS   25.000000 
1173             0.013000   0.200000   0.080000   0.200000   25.000000  PERVIOUS   25.000000 
1174             0.013000   0.200000   0.080000   0.200000   25.000000  PERVIOUS   25.000000 
1180             0.013000   0.200000   0.080000   0.200000   25.000000  PERVIOUS   25.000000 
1186             0.013000   0.200000   0.080000   0.200000   25.000000  PERVIOUS   25.000000 
1187             0.013000   0.200000   0.080000   0.200000   25.000000  PERVIOUS   25.000000 
1195             0.013000   0.200000   0.080000   0.200000   25.000000  PERVIOUS   25.000000 
1197             0.013000   0.200000   0.080000   0.200000   25.000000  PERVIOUS   25.000000 
1203             0.013000   0.200000   0.080000   0.200000   25.000000  PERVIOUS   25.000000 
1209             0.013000   0.200000   0.080000   0.200000   25.000000  PERVIOUS   25.000000 
1210             0.013000   0.200000   0.080000   0.200000   25.000000  PERVIOUS   25.000000 
1229             0.013000   0.200000   0.080000   0.200000   25.000000  PERVIOUS   25.000000 
1233             0.013000   0.200000   0.080000   0.200000   25.000000  PERVIOUS   25.000000 
1249             0.013000   0.200000   0.080000   0.200000   25.000000  PERVIOUS   25.000000 
1252             0.013000   0.200000   0.080000   0.200000   25.000000  PERVIOUS   25.000000 
1272             0.013000   0.200000   0.080000   0.200000   25.000000  PERVIOUS   25.000000 
1282             0.013000   0.200000   0.080000   0.200000   25.000000  PERVIOUS   25.000000 
1284             0.013000   0.200000   0.080000   0.200000   25.000000  PERVIOUS   25.000000 
1303             0.013000   0.200000   0.080000   0.200000   25.000000  PERVIOUS   25.000000 
1406             0.013000   0.200000   0.080000   0.200000   25.000000  PERVIOUS   25.000000 
1407             0.013000   0.200000   0.080000   0.200000   25.000000  PERVIOUS   25.000000 
1408             0.013000   0.200000   0.080000   0.200000   25.000000  PERVIOUS   25.000000 
1409             0.013000   0.200000   0.080000   0.200000   25.000000  PERVIOUS   25.000000 
1600             0.013000   0.200000   0.080000   0.200000   25.000000  PERVIOUS   25.000000 
1601             0.013000   0.200000   0.080000   0.200000   25.000000  PERVIOUS   25.000000 
1602             0.013      0.2        0.08       0.2        25         PERVIOUS   25        

[INFILTRATION]
;;Subcatchment   Suction    Ksat       IMD       
;;-------------- ---------- ---------- ----------
1040             3.4100     1.2400     0.2500    
1044             3.4100     1.2400     0.2500    
1067             3.4100     1.2400     0.2500    
1069             3.4100     1.2400     0.2500    
1072             3.4100     1.2400     0.2500    
1073             3.4100     1.2400     0.2500    
1075             3.4100     1.2400     0.2500    
1076             3.4100     1.2400     0.2500    
1094             3.4100     1.2400     0.2500    
1096             3.6407     1.2040     0.2452    
1105             4.1021     1.1320     0.2356    
1108             8.5623     0.4360     0.1428    
1112             4.2559     1.1080     0.2324    
1121             4.7942     1.0240     0.2212    
1122             6.2553     0.7960     0.1908    
1145             3.4100     1.2400     0.2500    
1149             4.9480     1.0000     0.2180    
1151             3.4100     1.2400     0.2500    
1152             3.4100     1.2400     0.2500    
1154             5.7170     0.8800     0.2020    
1173             5.8708     0.8560     0.1988    
1174             3.5638     1.2160     0.2468    
1180             4.5635     1.0600     0.2260    
1186             3.9483     1.1560     0.2388    
1187             7.0243     0.6760     0.1748    
1195             4.4866     1.0720     0.2276    
1197             4.9481     0.9910     0.2179    
1203             4.1021     1.1320     0.2356    
1209             4.4866     1.0720     0.2276    
1210             3.7176     1.1920     0.2436    
1229             3.5638     1.2160     0.2468    
1233             3.4100     1.2400     0.2500    
1249             3.4100     1.2400     0.2500    
1252             5.3325     0.9400     0.2100    
1272             3.4869     1.2280     0.2484    
1282             4.1021     1.1320     0.2356    
1284             4.8711     1.0120     0.2196    
1303             4.9480     1.0000     0.2180    
1406             3.4100     1.2400     0.2500    
1407             3.4100     1.2400     0.2500    
1408             3.5126     1.2180     0.2478    
1409             3.4100     1.2400     0.2500    
1600             3.4100     1.2400     0.2500    
1601             5.717      0.88       0.202     
1602             5.3325     0.94       0.21      

[JUNCTIONS]
;;Name           Elevation  MaxDepth   InitDepth  SurDepth   Aponded   
;;-------------- ---------- ---------- ---------- ---------- ----------
09181565         876.610000 6.920000   0.170000   0.000000   5000.000000
; Inlet
09182501         874.040000 5.330000   0.000000   0.000000   5000.000000
; Manhole with Inlet Cover
09183501         897.960000 6.160000   0.330000   0.000000   5000.000000
; Manhole with Inlet Cover
09183504         899.180000 6.500000   0.330000   0.000000   5000.000000
; Manhole with Inlet Cover
09183505         908.610000 6.080000   0.000000   0.000000   5000.000000
; Manhole with Inlet Cover
09183508         906.030000 7.000000   0.330000   0.000000   5000.000000
; Inlet
09183509         902.290000 8.080000   0.500000   0.000000   5000.000000
; Manhole with Inlet Cover
09183517         899.110000 5.330000   0.000000   0.000000   5000.000000
; Manhole with Inlet Cover
09183518         900.890000 5.670000   0.000000   0.000000   5000.000000
; Inlet
09184501         894.240000 6.500000   1.250000   0.000000   5000.000000
; Manhole with Inlet Cover
09184502         892.060000 8.170000   2.250000   0.000000   5000.000000
; Manhole with Inlet Cover
09184503         894.420000 5.840000   0.920000   0.000000   5000.000000
; Manhole with Inlet Cover
09184504         893.160000 6.330000   0.750000   0.000000   5000.000000
; Inlet
09184507         892.450000 7.500000   0.830000   0.000000   5000.000000
; Inlet
09184509         893.340000 6.660000   1.500000   0.000000   5000.000000
; Inlet
09184510         893.840000 5.990000   1.000000   0.000000   5000.000000
; Inlet
09184511         892.960000 6.950000   0.000000   0.000000   5000.000000
; Inlet
09184515         895.080000 8.670000   0.420000   0.000000   5000.000000
; Inlet
09184516         890.460000 10.500000  1.160000   0.000000   5000.000000
; Inlet
09184518         894.980000 5.500000   0.330000   0.000000   5000.000000
; Inlet
09184524         888.140000 5.920000   0.500000   0.000000   5000.000000
; Inlet
09184525         885.430000 5.750000   0.830000   0.000000   5000.000000
09191559         967.600000 8.500000   0.000000   0.000000   5000.000000
09191560         963.930000 11.070000  0.000000   0.000000   5000.000000
09191561         963.590000 11.410000  0.000000   0.000000   5000.000000
09191564         962.600000 9.430000   0.000000   0.000000   5000.000000
09191566         961.900000 9.270000   0.000000   0.000000   5000.000000
09191569         961.690000 9.260000   0.000000   0.000000   5000.000000
09191570         961.020000 14.000000  0.000000   0.000000   5000.000000
09191571         960.760000 15.440000  0.000000   0.000000   5000.000000
09191572         959.860000 21.740000  0.000000   0.000000   5000.000000
09191573         959.450000 23.000000  0.000000   0.000000   5000.000000
09191574         958.140000 19.510000  0.000000   0.000000   5000.000000
09191575         957.310000 14.340000  0.000000   0.000000   5000.000000
09191576         956.440000 13.360000  0.000000   0.000000   5000.000000
09191577         955.950000 14.920000  0.000000   0.000000   5000.000000
09191578         955.600000 14.940000  0.000000   0.000000   5000.000000
09191579         955.330000 20.000000  0.000000   0.000000   5000.000000
09191580         946.250000 10.000000  1.750000   0.000000   5000.000000
09191581         947.080000 13.560000  0.000000   0.000000   5000.000000
09191582         956.470000 0.000000   0.000000   0.000000   5000.000000
09191583         955.000000 0.000000   0.000000   0.000000   5000.000000
09191584         946.280000 8.550000   0.000000   0.000000   5000.000000
; Manhole with Inlet Cover
09192508         956.090000 7.910000   0.000000   0.000000   5000.000000
; Inlet
09192528         944.600000 6.420000   0.000000   0.000000   5000.000000
; Inlet
09192910         933.240000 3.000000   0.000000   0.000000   5000.000000
; Close-To-Open Discharge Point
27124            928.200000 20.000000  0.000000   0.000000   5000.000000
; Manhole
27125            928.710000 10.950000  0.000000   0.000000   5000.000000
; Not-found Manhole
27127            929.190000 6.210000   0.000000   100.000000 5000.000000
; Not-found Manhole
27128            930.040000 9.560000   0.000000   100.000000 5000.000000
; Inlet
27129            931.940000 5.250000   0.000000   0.000000   5000.000000
; Manhole
27131            940.080000 9.320000   0.000000   0.000000   5000.000000
; Manhole with Inlet Cover
27132            934.660000 8.750000   0.000000   0.000000   5000.000000
; Manhole
27133            940.110000 9.290000   0.000000   0.000000   5000.000000
; Not-found Manhole
27134            941.000000 11.800000  0.000000   100.000000 5000.000000
; Not-found Manhole
27135            941.950000 12.050000  0.000000   100.000000 5000.000000
; Manhole
27136            943.050000 8.450000   0.000000   0.000000   5000.000000
; Not-found Manhole
27138            944.270000 7.730000   0.000000   100.000000 5000.000000
; Manhole
27139            947.420000 5.450000   0.000000   0.000000   5000.000000
; Manhole
27140            944.840000 6.850000   0.000000   0.000000   5000.000000
; Manhole
27149            959.960000 8.530000   0.000000   0.000000   5000.000000
; Manhole
27150            956.420000 9.790000   0.000000   0.000000   5000.000000
; Manhole
27151            953.300000 10.900000  0.000000   0.000000   5000.000000
; Manhole
27152            954.580000 9.300000   0.000000   0.000000   5000.000000
; Manhole
27153            955.750000 8.390000   0.000000   0.000000   5000.000000
; Manhole
27154            956.560000 8.640000   0.000000   0.000000   5000.000000
; Manhole
27155            957.170000 9.530000   0.000000   0.000000   5000.000000
; Manhole
27156            957.800000 10.520000  0.000000   0.000000   5000.000000
; Manhole
27157            958.630000 9.210000   0.000000   0.000000   5000.000000
; Manhole
27158            959.150000 7.940000   0.000000   0.000000   5000.000000
; Manhole
27159            950.750000 11.100000  0.000000   0.000000   5000.000000
; Manhole
27160            954.970000 8.740000   0.000000   0.000000   5000.000000
; Manhole
27161            952.810000 8.160000   0.000000   0.000000   5000.000000
; Manhole
27162            953.800000 8.910000   0.000000   0.000000   5000.000000
; Manhole
27163            956.310000 9.550000   0.000000   0.000000   5000.000000
; Manhole
27164            949.460000 7.890000   0.000000   0.000000   5000.000000
; Manhole
27165            950.720000 7.350000   0.000000   0.000000   5000.000000
; Manhole
27166            955.890000 7.480000   0.000000   0.000000   5000.000000
; Manhole
27167            960.410000 7.930000   0.000000   0.000000   5000.000000
; Manhole
27168            952.620000 8.320000   0.000000   0.000000   5000.000000
; Manhole
27169            954.840000 7.940000   0.000000   0.000000   5000.000000
; Manhole
27170            951.210000 7.950000   0.000000   0.000000   5000.000000
; Manhole
27171            950.190000 8.180000   0.000000   0.000000   5000.000000
; Manhole
27172            949.740000 8.350000   0.000000   0.000000   5000.000000
; Manhole
27173            952.270000 8.600000   0.000000   0.000000   5000.000000
; Manhole
27174            954.140000 8.610000   0.000000   0.000000   5000.000000
; Manhole
27175            957.580000 8.530000   0.000000   0.000000   5000.000000
; Manhole
27176            947.500000 10.220000  0.000000   0.000000   5000.000000
; Manhole
27177            947.140000 9.280000   0.000000   0.000000   5000.000000
; Manhole
27178            945.810000 9.280000   0.000000   0.000000   5000.000000
; Manhole
27187            946.940000 7.380000   0.000000   0.000000   5000.000000
; Manhole
27188            941.360000 8.330000   0.000000   0.000000   5000.000000
; Manhole
27189            936.100000 7.520000   0.000000   0.000000   5000.000000
; Manhole with Inlet Cover
27190            933.940000 9.750000   0.000000   0.000000   5000.000000
; Manhole
27191            936.650000 11.390000  0.000000   0.000000   5000.000000
; Manhole
27192            939.310000 11.580000  0.000000   0.000000   5000.000000
; Inlet
27193            936.710000 6.420000   0.000000   0.000000   5000.000000
; Not-found Manhole
27194            933.270000 6.530000   0.000000   100.000000 5000.000000
; Not-found Manhole
27195            931.420000 9.480000   0.000000   100.000000 5000.000000
; Manhole
27196            936.680000 7.910000   0.000000   0.000000   5000.000000
; Open-To-Close Discharge Point
27197            929.900000 20.000000  0.000000   0.000000   5000.000000
; Manhole
27200            935.200000 9.680000   0.000000   0.000000   5000.000000
; Manhole
27201            944.700000 10.870000  0.000000   0.000000   5000.000000
; Manhole
27202            945.740000 8.860000   0.000000   0.000000   5000.000000
; Manhole
27203            931.450000 10.340000  0.000000   0.000000   5000.000000
; Manhole
27204            933.110000 9.190000   0.000000   0.000000   5000.000000
; Manhole
27205            931.720000 9.180000   0.000000   0.000000   5000.000000
; Manhole
27206            945.540000 10.550000  0.000000   0.000000   5000.000000
; Manhole
27207            932.300000 7.000000   0.000000   0.000000   5000.000000
; Manhole
27208            942.620000 8.940000   0.000000   0.000000   5000.000000
; Manhole
27209            933.190000 3.450000   0.000000   0.000000   5000.000000
; Manhole
27210            933.300000 3.420000   0.000000   0.000000   5000.000000
; Manhole
27211            935.410000 8.650000   0.000000   0.000000   5000.000000
; Manhole
27212            936.720000 14.110000  0.000000   0.000000   5000.000000
; Manhole
27213            938.300000 7.070000   0.000000   0.000000   5000.000000
; Manhole
27230            949.410000 7.390000   0.000000   0.000000   5000.000000
; Manhole
27231            947.430000 4.430000   0.000000   0.000000   5000.000000
; Manhole with Inlet Cover
27339            923.650000 7.460000   0.500000   0.000000   5000.000000
; Manhole with Inlet Cover
27341            940.340000 8.920000   0.500000   0.000000   5000.000000
; Manhole with Inlet Cover
27349            875.040000 8.080000   2.330000   0.000000   5000.000000
; Manhole
27350            884.400000 5.430000   0.000000   0.000000   5000.000000
; Not-found Manhole
27383            902.830000 5.820000   0.000000   100.000000 5000.000000
; Inlet
27393            893.290000 6.060000   0.000000   0.000000   5000.000000
; Manhole
27394            896.340000 4.660000   0.000000   0.000000   5000.000000
; Manhole with Inlet Cover
27396            891.750000 17.170000  0.000000   0.000000   5000.000000
; Not-found Manhole
27398            880.400000 10.400000  0.000000   100.000000 5000.000000
; DetentionPondRiser
27402            868.520000 8.590000   4.000000   0.000000   5000.000000
; Inlet
27403            871.680000 13.760000  0.000000   0.000000   5000.000000
; Close-To-Open Discharge Point
27404            871.000000 20.000000  0.000000   0.000000   5000.000000
; Manhole with Inlet Cover
27406            882.380000 10.170000  0.000000   0.000000   5000.000000
; Close-To-Open Discharge Point
27407            880.800000 20.000000  0.000000   0.000000   5000.000000
; DetentionPondRiser
27410            882.650000 10.000000  0.000000   0.000000   5000.000000
; Manhole
27417            889.890000 8.600000   0.000000   0.000000   5000.000000
; Manhole with Inlet Cover
27419            888.980000 11.330000  1.080000   0.000000   5000.000000
; Inlet
27420            888.420000 12.500000  1.000000   0.000000   5000.000000
; Inlet
27421            889.090000 12.250000  0.330000   0.000000   5000.000000
; Open-To-Close Discharge Point
27423            897.240000 20.000000  0.000000   0.000000   5000.000000
; Inlet
27424            899.620000 7.730000   0.000000   0.000000   5000.000000
; Close-To-Open Discharge Point
27425            898.220000 20.000000  0.000000   0.000000   5000.000000
; Manhole
27441            905.040000 3.460000   0.000000   0.000000   5000.000000
; Manhole
27442            904.580000 3.420000   0.000000   0.000000   5000.000000
; Inlet
27446            916.500000 4.750000   0.000000   0.000000   5000.000000
; Inlet
27447            915.680000 4.230000   0.000000   0.000000   5000.000000
; Manhole
27448            914.800000 5.090000   0.000000   0.000000   5000.000000
; Manhole
27449            910.120000 3.970000   0.000000   0.000000   5000.000000
; Inlet
27450            907.990000 5.550000   0.500000   0.000000   5000.000000
; Inlet
27451            907.340000 6.200000   0.500000   0.000000   5000.000000
; Manhole with Inlet Cover
27456            913.000000 5.490000   0.500000   0.000000   5000.000000
; Manhole with Inlet Cover
27459            917.760000 8.780000   0.500000   0.000000   5000.000000
; Manhole with Inlet Cover
27461            928.840000 10.100000  0.500000   0.000000   5000.000000
; Manhole with Inlet Cover
27463            940.890000 12.110000  0.000000   0.000000   5000.000000
; Manhole with Inlet Cover
27465            949.130000 8.070000   0.000000   0.000000   5000.000000
; Inlet
27466            941.130000 6.170000   0.000000   0.000000   5000.000000
; Inlet
27467            932.290000 7.710000   0.000000   0.000000   5000.000000
; Manhole
27468            924.980000 6.520000   0.000000   0.000000   5000.000000
; Inlet
27470            924.040000 2.960000   0.000000   0.000000   5000.000000
; Manhole
27471            947.500000 5.000000   0.000000   0.000000   5000.000000
; Manhole
27473            912.500000 6.000000   0.000000   0.000000   5000.000000
; DetentionPondRiser
27475            911        5.630000   0.000000   0.000000   5000.000000
; Manhole
27480            947.560000 6.420000   0.000000   0.000000   5000.000000
; Manhole
27481            948.630000 6.700000   0.000000   0.000000   5000.000000
; Manhole with Inlet Cover
27482            921.260000 6.150000   0.500000   0.000000   5000.000000
; Manhole
27486            919.710000 11.250000  0.000000   0.000000   5000.000000
; DetentionPondRiser
27488            918.210000 3.330000   0.000000   0.000000   5000.000000
; Manhole with Inlet Cover
27490            936.960000 11.580000  0.500000   0.000000   5000.000000
; Manhole
27492            940.810000 10.080000  0.000000   0.000000   5000.000000
; Manhole
27493            947.100000 9.420000   0.000000   0.000000   5000.000000
; Inlet
27500            881.200000 7.920000   2.000000   0.000000   5000.000000
; Open-To-Close Discharge Point
27502            800.200000 20.000000  0.000000   0.000000   5000.000000
; Open-To-Close Discharge Point
27502A           800.200000 20.000000  0.000000   0.000000   5000.000000
; Manhole
27503            828.660000 13.060000  0.000000   0.000000   5000.000000
; Manhole
27504            830.200000 8.250000   0.000000   0.000000   5000.000000
; Manhole
27505            808.400000 5.600000   0.000000   0.000000   5000.000000
; Manhole
27507            827.120000 12.350000  0.000000   0.000000   5000.000000
; Manhole
27508            831.070000 11.100000  0.000000   0.000000   5000.000000
; GradeChange
27509            806.700000 6.510000   0.000000   100.000000 5000.000000
; Manhole
27510            821.260000 6.420000   0.000000   0.000000   5000.000000
; Manhole
27526            827.630000 9.710000   0.000000   0.000000   5000.000000
; Manhole
27527            825.580000 7.870000   0.000000   0.000000   5000.000000
; Manhole
27528            822.330000 7.590000   0.000000   0.000000   5000.000000
; Manhole
27529            819.210000 6.980000   0.000000   0.000000   5000.000000
; Manhole
27530            816.430000 6.380000   0.000000   0.000000   5000.000000
; Manhole with Inlet Cover
27531            836.250000 7.000000   0.000000   0.000000   5000.000000
; Manhole
27532            831.720000 9.070000   0.000000   0.000000   5000.000000
; Inlet
27533            830.000000 5.790000   2.640000   0.000000   5000.000000
; Inlet
27534            832.800000 7.000000   0.000000   0.000000   5000.000000
; Inlet
27535            833.200000 6.670000   0.000000   0.000000   5000.000000
; Inlet
27536            834.920000 6.170000   0.000000   0.000000   5000.000000
; Inlet
27537            836.090000 8.330000   0.000000   0.000000   5000.000000
; Inlet
27538            842.060000 14.580000  3.000000   0.000000   5000.000000
; Inlet