[TITLE]
;;Project Title/Notes

[OPTIONS]
;;Option             Value
FLOW_UNITS           CFS
INFILTRATION         GREEN_AMPT
FLOW_ROUTING         DYNWAVE
LINK_OFFSETS         DEPTH
MIN_SLOPE            0
ALLOW_PONDING        NO
SKIP_STEADY_STATE    NO

START_DATE           01/01/2008
START_TIME           00:00:00
REPORT_START_DATE    01/01/2008
REPORT_START_TIME    00:00:00
END_DATE             01/06/2008
END_TIME             00:00:00
SWEEP_START          01/01
SWEEP_END            12/31
DRY_DAYS             0.000000
REPORT_STEP          00:30:00
WET_STEP             00:07:30
DRY_STEP             00:15:00
ROUTING_STEP         0:01:00 

INERTIAL_DAMPING     PARTIAL
NORMAL_FLOW_LIMITED  BOTH
FORCE_MAIN_EQUATION  H-W
VARIABLE_STEP        0.75
LENGTHENING_STEP     0
MIN_SURFAREA         0
MAX_TRIALS           0
HEAD_TOLERANCE       0
SYS_FLOW_TOL         5
LAT_FLOW_TOL         5
MINIMUM_STEP         0.5
THREADS              1

[EVAPORATION]
;;Data Source    Parameters
;;-------------- ----------------
MONTHLY          0.072000 0.093000 0.134000 0.170000 0.196000 0.220000 0.248000 0.227000 0.190000 0.134000 0.090000 0.062000
DRY_ONLY         NO

[RAINGAGES]
;;Name           Format    Interval SCF      Source    
;;-------------- --------- ------ ------ ----------
; On-Site Tipping Bucket Data
SSFL_GAGE        CUMULATIVE .125     1.000000 TIMESERIES 6HR-1.0         

[SUBCATCHMENTS]
;;Name           Rain Gage        Outlet           Area     %Imperv  Width    %Slope   CurbLen  SnowPack        
;;-------------- ---------------- ---------------- -------- -------- -------- -------- -------- ----------------
SUB-100          SSFL_GAGE        OUTFALL-001      28.875115 3.634720 768.000000 9.917969 0.000000                 
SUB-1000         SSFL_GAGE        JCT-1000         0.799000 20.000000 96.000000 30.020000 0.000000                 
SUB-1001         SSFL_GAGE        JCT-1001         2.133000 15.000000 200.000000 18.007000 0.000000                 
; Subcatchment1002
SUB-1002         SSFL_GAGE        JCT-1002         2.408000 5.000000 77.000000 14.873000 0.000000                 
SUB-101          SSFL_GAGE        JCT-101          40.902204 22.491100 1165.000000 24.619048 0.000000                 
SUB-102          SSFL_GAGE        JCT-102          26.875574 12.893000 708.000000 17.284195 0.000000                 
SUB-103          SSFL_GAGE        JCT-103          28.914141 2.352370 618.000000 12.065882 0.000000                 
SUB-104          SSFL_GAGE        JCT-104          13.067034 2.865060 506.000000 16.984364 0.000000                 
SUB-105          SSFL_GAGE        JCT-105          49.692378 4.077780 1209.000000 18.229120 0.000000                 
SUB-106          SSFL_GAGE        JCT-106          33.443526 4.033670 924.000000 14.944191 0.000000                 
SUB-107          SSFL_GAGE        JCT-107          15.406336 4.370200 708.000000 21.677909 0.000000                 
SUB-108          SSFL_GAGE        JCT-108          14.198806 1.258070 600.000000 27.481769 0.000000                 
SUB-109          SSFL_GAGE        JCT-109          25.459137 13.849900 579.000000 7.806344 0.000000                 
SUB-110          SSFL_GAGE        JCT-110          29.093205 5.001860 831.000000 20.906660 0.000000                 
SUB-1100         SSFL_GAGE        11_PERIMETER_POND 39.226354 25.570100 893.000000 19.199000 0.000000                 
SUB-1101         SSFL_GAGE        JCT-1101         35.472911 35.610400 836.000000 8.475303 0.000000                 
SUB-1102         SSFL_GAGE        JCT-1102         42.511478 15.923900 1244.000000 16.394200 0.000000                 
SUB-1103         SSFL_GAGE        15-R-1_POND      41.101928 18.437800 1266.000000 16.431239 0.000000                 
SUB-1104         SSFL_GAGE        JCT-1104         33.562902 16.286800 869.000000 20.753210 0.000000                 
SUB-1105         SSFL_GAGE        JCT-1105         31.418733 21.434700 694.000000 19.974858 0.000000                 
SUB-1106         SSFL_GAGE        JCT-1106         33.310376 5.354630 1186.000000 17.715000 0.000000                 
SUB-1107         SSFL_GAGE        JCT-1107         34.168962 6.394030 1225.000000 18.522054 0.000000                 
SUB-1800         SSFL_GAGE        2-POND2          34.263085 23.173700 1028.000000 10.723568 0.000000                 
SUB-1801         SSFL_GAGE        JCT-1801         39.458219 13.435700 865.000000 12.766814 0.000000                 
SUB-1802         SSFL_GAGE        JCT-1802         25.842516 59.565600 650.000000 6.542514 0.000000                 
SUB-1803         SSFL_GAGE        JCT-1803         33.677686 27.101100 1041.000000 9.473893 0.000000                 
SUB-1804         SSFL_GAGE        JCT-1804         31.264922 30.324600 874.000000 19.078502 0.000000                 
SUB-1805         SSFL_GAGE        JCT-1805         27.959137 28.309000 880.000000 19.421053 0.000000                 
SUB-1806         SSFL_GAGE        JCT-1806         28.776400 16.367800 1096.000000 24.388112 0.000000                 
SUB-1807         SSFL_GAGE        JCT-1807         38.220845 18.852200 1151.000000 18.488385 0.000000                 
SUB-1808         SSFL_GAGE        JCT-1808         46.005510 27.064400 1201.000000 17.032598 0.000000                 
SUB-1809         SSFL_GAGE        JCT-1809         47.031680 26.749100 1213.000000 6.251540 0.000000                 
SUB-1810         SSFL_GAGE        JCT-1810         35.406336 22.912200 531.000000 11.701406 0.000000                 
SUB-1811         SSFL_GAGE        SILVERDALE_POND  35.332874 16.750300 1003.000000 18.420229 0.000000                 
SUB-1812         SSFL_GAGE        JCT-1812         38.822314 26.387800 1010.000000 12.811185 0.000000                 
SUB-1813         SSFL_GAGE        JCT-1813         38.957759 27.604300 1029.000000 21.905962 0.000000                 
SUB-1814         SSFL_GAGE        JCT-1814         38.156566 54.114700 1103.000000 6.266313 0.000000                 
SUB-200          SSFL_GAGE        OUTFALL-002      39.653352 0.833420 958.000000 17.595301 0.000000                 
SUB-201          SSFL_GAGE        JCT-201          43.700643 11.432100 770.000000 16.325024 0.000000                 
SUB-202          SSFL_GAGE        JCT-202          26.937557 5.423820 778.000000 15.105458 0.000000                 
SUB-203          SSFL_GAGE        JCT-203          40.858586 1.811360 1114.000000 18.551327 0.000000                 
SUB-204          SSFL_GAGE        JCT-204          47.947658 7.551860 1043.000000 16.259880 0.000000                 
SUB-205          SSFL_GAGE        JCT-205          46.769972 9.488200 1263.000000 19.954410 0.000000                 
SUB-206          SSFL_GAGE        JCT-206          24.329660 1.882690 713.000000 20.504572 0.000000                 
SUB-207          SSFL_GAGE        JCT-207          53.693756 2.613830 1171.000000 20.243287 0.000000                 
SUB-208          SSFL_GAGE        JCT-208          35.858586 2.146340 805.000000 17.250103 0.000000                 
SUB-300          SSFL_GAGE        JCT-301          13.947000 5.000000 400.000000 17.000000 0.000000                 
SUB-400          SSFL_GAGE        JCT-401          3.586000 2.000000 150.000000 15.000000 0.000000                 
SUB-401          SSFL_GAGE        JCT-401          2.938000 2.000000 125.000000 10.000000 0.000000                 
SUB-500          SSFL_GAGE        JCT-501          0.258000 2.000000 99.852000 18.567000 0.000000                 
SUB-600          SSFL_GAGE        JCT-601          12.882000 5.000000 100.000000 17.120000 0.000000                 
SUB-700          SSFL_GAGE        JCT-701          2.820000 10.000000 458.568000 11.596000 0.000000                 
SUB-800          SSFL_GAGE        OUTFALL-008      36.554178 9.915080 970.000000 18.565514 0.000000                 
SUB-801          SSFL_GAGE        JCT-801          25.624426 15.614800 800.000000 19.646552 0.000000                 
SUB-900          SSFL_GAGE        OUTFALL-009      38.018825 7.416270 735.000000 13.977401 0.000000                 
SUB-901          SSFL_GAGE        JCT-901          34.056474 9.603270 875.000000 12.725080 0.000000                 
SUB-902          SSFL_GAGE        JCT-902          42.095960 43.594500 1111.000000 11.302863 0.000000                 
SUB-903          SSFL_GAGE        JCT-903          4.793388 78.325900 369.000000 7.900322 0.000000                 
SUB-904          SSFL_GAGE        JCT-904          19.320478 14.999500 448.000000 13.334463 0.000000                 
SUB-905          SSFL_GAGE        JCT-905          34.187328 14.568100 902.000000 21.422124 0.000000                 
SUB-906          SSFL_GAGE        JCT-906          18.500918 34.503700 626.000000 13.835568 0.000000                 
SUB-907          SSFL_GAGE        JCT-907          33.294307 7.288130 673.000000 15.257806 0.000000                 
SUB-908          SSFL_GAGE        JCT-908          29.478880 22.463400 620.000000 9.572244 0.000000                 
SUB-909          SSFL_GAGE        JCT-909          22.194674 10.873500 812.000000 17.745038 0.000000                 
SUB-910          SSFL_GAGE        JCT-910          9.067952 60.715600 402.000000 13.746296 0.000000                 
SUB-911          SSFL_GAGE        JCT-911          3.415978 90.334700 277.000000 10.798305 0.000000                 
SUB-912          SSFL_GAGE        JCT-912          25.730028 19.248400 773.000000 16.629235 0.000000                 
SUB-913          SSFL_GAGE        JCT-913          43.418274 15.709000 1119.000000 16.392473 0.000000                 
SUB-914          SSFL_GAGE        JCT-914          43.999082 11.536600 841.000000 11.550239 0.000000                 
SUB-915          SSFL_GAGE        JCT-915          24.295225 9.645000 680.000000 14.566842 0.000000                 
SUB-916          SSFL_GAGE        JCT-916          46.457759 10.387700 1001.000000 15.152428 0.000000                 
SUB-917          SSFL_GAGE        JCT-917          31.209826 8.822550 774.000000 18.281201 0.000000                 
SUB-918          SSFL_GAGE        JCT-918          32.153352 8.359020 862.000000 23.335758 0.000000                 

[SUBAREAS]
;;Subcatchment   N-Imperv   N-Perv     S-Imperv   S-Perv     PctZero    RouteTo    PctRouted 
;;-------------- ---------- ---------- ---------- ---------- ---------- ---------- ----------
SUB-100          0.024000   0.600000   0.900000   1.000000   0.000000   PERVIOUS   100.000000
SUB-1000         0.024000   0.600000   1.000000   0.550000   0.000000   PERVIOUS   100.000000
SUB-1001         0.024000   0.600000   1.000000   0.550000   0.000000   PERVIOUS   100.000000
SUB-1002         0.024000   0.600000   1.000000   0.550000   0.000000   PERVIOUS   100.000000
SUB-101          0.024000   0.600000   0.900000   1.000000   0.000000   PERVIOUS   100.000000
SUB-102          0.024000   0.600000   0.900000   1.000000   0.000000   PERVIOUS   100.000000
SUB-103          0.024000   0.600000   0.900000   1.000000   0.000000   PERVIOUS   100.000000
SUB-104          0.024000   0.600000   0.900000   1.000000   0.000000   PERVIOUS   100.000000
SUB-105          0.024000   0.600000   0.900000   1.000000   0.000000   PERVIOUS   100.000000
SUB-106          0.024000   0.600000   0.900000   1.000000   0.000000   PERVIOUS   100.000000
SUB-107          0.024000   0.600000   0.900000   1.000000   0.000000   PERVIOUS   100.000000
SUB-108          0.024000   0.600000   0.900000   1.000000   0.000000   PERVIOUS   100.000000
SUB-109          0.024000   0.600000   0.900000   1.000000   0.000000   PERVIOUS   100.000000
SUB-110          0.024000   0.600000   0.900000   1.000000   0.000000   PERVIOUS   100.000000
SUB-1100         0.024000   0.600000   0.550000   0.650000   0.000000   PERVIOUS   100.000000
SUB-1101         0.024000   0.600000   0.550000   0.650000   0.000000   PERVIOUS   100.000000
SUB-1102         0.024000   0.600000   0.550000   0.650000   0.000000   PERVIOUS   100.000000
SUB-1103         0.024000   0.600000   0.550000   0.650000   0.000000   PERVIOUS   100.000000
SUB-1104         0.024000   0.600000   0.550000   0.650000   0.000000   PERVIOUS   100.000000
SUB-1105         0.024000   0.600000   0.550000   0.650000   0.000000   PERVIOUS   100.000000
SUB-1106         0.024000   0.600000   0.550000   0.650000   0.000000   PERVIOUS   100.000000
SUB-1107         0.024000   0.600000   0.550000   0.650000   0.000000   PERVIOUS   100.000000
SUB-1800         0.024000   0.600000   0.550000   0.650000   0.000000   PERVIOUS   100.000000
SUB-1801         0.024000   0.600000   0.550000   0.650000   0.000000   PERVIOUS   100.000000
SUB-1802         0.024000   0.600000   0.550000   0.650000   0.000000   PERVIOUS   100.000000
SUB-1803         0.024000   0.600000   0.550000   0.650000   0.000000   PERVIOUS   100.000000
SUB-1804         0.024000   0.600000   0.550000   0.650000   0.000000   PERVIOUS   100.000000
SUB-1805         0.024000   0.600000   0.550000   0.650000   0.000000   PERVIOUS   100.000000
SUB-1806         0.024000   0.600000   0.550000   0.650000   0.000000   PERVIOUS   100.000000
SUB-1807         0.024000   0.600000   0.550000   0.650000   0.000000   PERVIOUS   100.000000
SUB-1808         0.024000   0.600000   0.550000   0.650000   0.000000   PERVIOUS   100.000000
SUB-1809         0.024000   0.600000   0.550000   0.650000   0.000000   PERVIOUS   100.000000
SUB-1810         0.024000   0.600000   0.550000   0.650000   0.000000   PERVIOUS   100.000000
SUB-1811         0.024000   0.600000   0.550000   0.650000   0.000000   PERVIOUS   100.000000
SUB-1812         0.024000   0.600000   0.550000   0.650000   0.000000   PERVIOUS   100.000000
SUB-1813         0.024000   0.600000   0.550000   0.650000   0.000000   PERVIOUS   100.000000
SUB-1814         0.024000   0.600000   0.550000   0.650000   0.000000   PERVIOUS   100.000000
SUB-200          0.024000   0.600000   0.900000   1.000000   0.000000   PERVIOUS   100.000000
SUB-201          0.024000   0.600000   0.900000   1.000000   0.000000   PERVIOUS   100.000000
SUB-202          0.024000   0.600000   0.900000   1.000000   0.000000   PERVIOUS   100.000000
SUB-203          0.024000   0.600000   0.900000   1.000000   0.000000   PERVIOUS   100.000000
SUB-204          0.024000   0.600000   0.900000   1.000000   0.000000   PERVIOUS   100.000000
SUB-205          0.024000   0.600000   0.900000   1.000000   0.000000   PERVIOUS   100.000000
SUB-206          0.024000   0.600000   0.900000   1.000000   0.000000   PERVIOUS   100.000000
SUB-207          0.024000   0.600000   0.900000   1.000000   0.000000   PERVIOUS   100.000000
SUB-208          0.024000   0.600000   0.900000   1.000000   0.000000   PERVIOUS   100.000000
SUB-300          0.024000   0.600000   1.000000   0.550000   0.000000   PERVIOUS   100.000000
SUB-400          0.024000   0.600000   1.000000   0.550000   0.000000   PERVIOUS   100.000000
SUB-401          0.024000   0.600000   1.000000   0.550000   0.000000   PERVIOUS   100.000000
SUB-500          0.024000   0.600000   0.900000   0.650000   0.000000   PERVIOUS   100.000000
SUB-600          0.024000   0.600000   0.800000   0.650000   0.000000   PERVIOUS   100.000000
SUB-700          0.024000   0.600000   0.900000   0.550000   0.000000   PERVIOUS   100.000000
SUB-800          0.024000   0.600000   0.100000   0.300000   0.000000   PERVIOUS   100.000000
SUB-801          0.024000   0.600000   0.100000   0.300000   0.000000   PERVIOUS   100.000000
SUB-900          0.024000   0.600000   0.100000   0.300000   0.000000   PERVIOUS   100.000000
SUB-901          0.024000   0.600000   0.100000   0.300000   0.000000   PERVIOUS   100.000000
SUB-902          0.024000   0.600000   0.100000   0.300000   0.000000   PERVIOUS   100.000000
SUB-903          0.024000   0.600000   0.100000   0.300000   0.000000   PERVIOUS   100.000000
SUB-904          0.024000   0.600000   0.100000   0.300000   0.000000   PERVIOUS   100.000000
SUB-905          0.024000   0.600000   0.100000   0.300000   0.000000   PERVIOUS   100.000000
SUB-906          0.024000   0.600000   0.100000   0.300000   0.000000   PERVIOUS   100.000000
SUB-907          0.024000   0.600000   0.100000   0.300000   0.000000   PERVIOUS   100.000000
SUB-908          0.024000   0.600000   0.100000   0.300000   0.000000   PERVIOUS   100.000000
SUB-909          0.024000   0.600000   0.100000   0.300000   0.000000   PERVIOUS   100.000000
SUB-910          0.024000   0.600000   0.100000   0.300000   0.000000   PERVIOUS   100.000000
SUB-911          0.024000   0.600000   0.100000   0.300000   0.000000   PERVIOUS   100.000000
SUB-912          0.024000   0.600000   0.100000   0.300000   0.000000   PERVIOUS   100.000000
SUB-913          0.024000   0.600000   0.100000   0.300000   0.000000   PERVIOUS   100.000000
SUB-914          0.024000   0.600000   0.100000   0.300000   0.000000   PERVIOUS   100.000000
SUB-915          0.024000   0.600000   0.100000   0.300000   0.000000   PERVIOUS   100.000000
SUB-916          0.024000   0.600000   0.100000   0.300000   0.000000   PERVIOUS   100.000000
SUB-917          0.024000   0.600000   0.100000   0.300000   0.000000   PERVIOUS   100.000000
SUB-918          0.024000   0.600000   0.100000   0.300000   0.000000   PERVIOUS   100.000000

[INFILTRATION]
;;Subcatchment   Suction    Ksat       IMD       
;;-------------- ---------- ---------- ----------
SUB-100          8.200000   0.220000   0.000000  
SUB-1000         11.000000  0.100000   0.000000  
SUB-1001         11.000000  0.100000   0.000000  
SUB-1002         11.000000  0.100000   0.000000  
SUB-101          10.400000  0.253000   0.000000  
SUB-102          9.500000   0.306000   0.000000  
SUB-103          8.100000   0.220000   0.000000  
SUB-104          8.400000   0.220000   0.000000  
SUB-105          6.300000   0.346000   0.000000  
SUB-106          7.900000   0.220000   0.000000  
SUB-107          9.200000   0.220000   0.000000  
SUB-108          8.400000   0.220000   0.000000  
SUB-109          6.700000   0.375000   0.000000  
SUB-110          8.800000   0.220000   0.000000  
SUB-1100         10.330000  0.281000   0.000000  
SUB-1101         11.000000  0.110000   0.000000  
SUB-1102         11.000000  0.110000   0.000000  
SUB-1103         10.880000  0.115000   0.000000  
SUB-1104         10.460000  0.124000   0.000000  
SUB-1105         10.590000  0.127000   0.000000  
SUB-1106         9.760000   0.213000   0.000000  
SUB-1107         8.590000   0.112000   0.000000  
SUB-1800         9.640000   0.149000   0.000000  
SUB-1801         4.390000   0.243000   0.000000  
SUB-1802         5.020000   0.273000   0.000000  
SUB-1803         4.370000   0.290000   0.000000  
SUB-1804         11.000000  0.110000   0.000000  
SUB-1805         11.000000  0.110000   0.000000  
SUB-1806         10.970000  0.111000   0.000000  
SUB-1807         10.970000  0.110000   0.000000  
SUB-1808         8.420000   0.178000   0.000000  
SUB-1809         4.780000   0.286000   0.000000  
SUB-1810         6.820000   0.229000   0.000000  
SUB-1811         7.910000   0.199000   0.000000  
SUB-1812         5.250000   0.277000   0.000000  
SUB-1813         11.000000  0.110000   0.000000  
SUB-1814         4.430000   0.276000   0.000000  
SUB-200          6.500000   0.110000   0.000000  
SUB-201          5.500000   0.190000   0.000000  
SUB-202          7.700000   0.160000   0.000000  
SUB-203          4.900000   0.200000   0.000000  
SUB-204          7.400000   0.150000   0.000000  
SUB-205          9.500000   0.130000   0.000000  
SUB-206          9.000000   0.110000   0.000000  
SUB-207          6.700000   0.160000   0.000000  
SUB-208          7.000000   0.110000   0.000000  
SUB-300          10.590000  0.500000   0.000000  
SUB-400          10.000000  0.800000   0.000000  
SUB-401          10.000000  0.800000   0.000000  
SUB-500          11.000000  0.110000   0.000000  
SUB-600          6.000000   0.800000   0.000000  
SUB-700          9.000000   0.160000   0.000000  
SUB-800          10.000000  0.110000   0.000000  
SUB-801          11.000000  0.110000   0.000000  
SUB-900          7.200000   0.110000   0.000000  
SUB-901          11.000000  0.110000   0.000000  
SUB-902          11.000000  0.110000   0.000000  
SUB-903          11.000000  0.110000   0.000000  
SUB-904          9.600000   0.110000   0.000000  
SUB-905          7.300000   0.110000   0.000000  
SUB-906          11.000000  0.110000   0.000000  
SUB-907          6.800000   0.110000   0.000000  
SUB-908          4.600000   0.260000   0.000000  
SUB-909          5.500000   0.170000   0.000000  
SUB-910          6.200000   0.250000   0.000000  
SUB-911          4.300000   0.300000   0.000000  
SUB-912          11.000000  0.110000   0.000000  
SUB-913          11.000000  0.110000   0.000000  
SUB-914          10.900000  0.110000   0.000000  
SUB-915          9.200000   0.110000   0.000000  
SUB-916          9.200000   0.110000   0.000000  
SUB-917          6.900000   0.110000   0.000000  
SUB-918          9.300000   0.110000   0.000000  

[AQUIFERS]
;;Name           Por    WP     FC     Ksat   Kslope Tslope ETu    ETs    Seep   Ebot   Egw    Umc    ETupat 
;;-------------- ------ ------ ------ ------ ------ ------ ------ ------ ------ ------ ------ ------ ------
AQ-100           0.450000 0.150000 0.260000 0.110000 2.000000 20.000000 0.080000 3.500000 0.000600 0.000000 0.000000 0.450000       
AQ-101           0.450000 0.150000 0.260000 0.110000 2.000000 20.000000 0.080000 3.500000 0.000600 0.000000 0.000000 0.450000       
AQ-102           0.450000 0.150000 0.260000 0.110000 2.000000 20.000000 0.080000 3.500000 0.000600 0.000000 0.000000 0.450000       
AQ-103           0.450000 0.150000 0.260000 0.110000 2.000000 20.000000 0.080000 3.500000 0.000600 0.000000 0.000000 0.450000       
AQ-104           0.450000 0.150000 0.260000 0.110000 2.000000 20.000000 0.080000 3.500000 0.000600 0.000000 0.000000 0.450000       
AQ-105           0.450000 0.150000 0.260000 0.110000 2.000000 20.000000 0.080000 3.500000 0.000600 0.000000 0.000000 0.450000       
AQ-106           0.450000 0.150000 0.260000 0.110000 2.000000 20.000000 0.080000 3.500000 0.000600 0.000000 0.000000 0.450000       
AQ-107           0.450000 0.150000 0.260000 0.110000 2.000000 20.000000 0.080000 3.500000 0.000600 0.000000 0.000000 0.450000       
AQ-108           0.450000 0.150000 0.260000 0.110000 2.000000 20.000000 0.080000 3.500000 0.000600 0.000000 0.000000 0.450000       
AQ-109           0.450000 0.150000 0.260000 0.110000 2.000000 20.000000 0.080000 3.500000 0.000600 0.000000 0.000000 0.450000       
AQ-110           0.450000 0.150000 0.260000 0.110000 2.000000 20.000000 0.080000 3.500000 0.000600 0.000000 0.000000 0.450000       
AQ-200           0.450000 0.150000 0.260000 0.110000 2.000000 20.000000 0.080000 3.500000 0.000600 0.000000 0.000000 0.450000       
AQ-201           0.450000 0.150000 0.260000 0.110000 2.000000 20.000000 0.080000 3.500000 0.000600 0.000000 0.000000 0.450000       
AQ-202           0.450000 0.150000 0.260000 0.110000 2.000000 20.000000 0.080000 3.500000 0.000600 0.000000 0.000000 0.450000       
AQ-203           0.450000 0.150000 0.260000 0.110000 2.000000 20.000000 0.080000 3.500000 0.000600 0.000000 0.000000 0.450000       
AQ-204           0.450000 0.150000 0.260000 0.110000 2.000000 20.000000 0.080000 3.500000 0.000600 0.000000 0.000000 0.450000       
AQ-205           0.450000 0.150000 0.260000 0.110000 2.000000 20.000000 0.080000 3.500000 0.000600 0.000000 0.000000 0.450000       
AQ-206           0.450000 0.150000 0.260000 0.110000 2.000000 20.000000 0.080000 3.500000 0.000600 0.000000 0.000000 0.450000       
AQ-207           0.450000 0.150000 0.260000 0.110000 2.000000 20.000000 0.080000 3.500000 0.000600 0.000000 0.000000 0.450000       
AQ-208           0.450000 0.150000 0.260000 0.110000 2.000000 20.000000 0.080000 3.500000 0.000600 0.000000 0.000000 0.450000       
AQ-800           0.450000 0.150000 0.260000 0.110000 2.000000 20.000000 0.080000 3.500000 0.000600 0.000000 0.000000 0.450000       
AQ-801           0.450000 0.150000 0.260000 0.110000 2.000000 20.000000 0.080000 3.500000 0.000600 0.000000 0.000000 0.450000       
AQ-900           0.450000 0.150000 0.260000 0.110000 2.000000 20.000000 0.080000 3.500000 0.000600 0.000000 0.000000 0.450000       
AQ-901           0.450000 0.150000 0.260000 0.110000 2.000000 20.000000 0.080000 3.500000 0.000600 0.000000 0.000000 0.450000       
AQ-902           0.450000 0.150000 0.260000 0.110000 2.000000 20.000000 0.080000 3.500000 0.000600 0.000000 0.000000 0.450000       
AQ-903           0.450000 0.150000 0.260000 0.110000 2.000000 20.000000 0.080000 3.500000 0.000600 0.000000 0.000000 0.450000       
AQ-904           0.450000 0.150000 0.260000 0.110000 2.000000 20.000000 0.080000 3.500000 0.000600 0.000000 0.000000 0.450000       
AQ-905           0.450000 0.150000 0.260000 0.110000 2.000000 20.000000 0.080000 3.500000 0.000600 0.000000 0.000000 0.450000       
AQ-906           0.450000 0.150000 0.260000 0.110000 2.000000 20.000000 0.080000 3.500000 0.000600 0.000000 0.000000 0.450000       
AQ-907           0.450000 0.150000 0.260000 0.110000 2.000000 20.000000 0.080000 3.500000 0.000600 0.000000 0.000000 0.450000       
AQ-908           0.450000 0.150000 0.260000 0.110000 2.000000 20.000000 0.080000 3.500000 0.000600 0.000000 0.000000 0.450000       
AQ-909           0.450000 0.150000 0.260000 0.110000 2.000000 20.000000 0.080000 3.500000 0.000600 0.000000 0.000000 0.450000       
AQ-910           0.450000 0.150000 0.260000 0.110000 2.000000 20.000000 0.080000 3.500000 0.000600 0.000000 0.000000 0.450000       
AQ-911           0.450000 0.150000 0.260000 0.110000 2.000000 20.000000 0.080000 3.500000 0.000600 0.000000 0.000000 0.450000       
AQ-912           0.450000 0.150000 0.260000 0.110000 2.000000 20.000000 0.080000 3.500000 0.000600 0.000000 0.000000 0.450000       
AQ-913           0.450000 0.150000 0.260000 0.110000 2.000000 20.000000 0.080000 3.500000 0.000600 0.000000 0.000000 0.450000       
AQ-914           0.450000 0.150000 0.260000 0.110000 2.000000 20.000000 0.080000 3.500000 0.000600 0.000000 0.000000 0.450000       
AQ-915           0.450000 0.150000 0.260000 0.110000 2.000000 20.000000 0.080000 3.500000 0.000600 0.000000 0.000000 0.450000       
AQ-916           0.450000 0.150000 0.260000 0.110000 2.000000 20.000000 0.080000 3.500000 0.000600 0.000000 0.000000 0.450000       
AQ-917           0.450000 0.150000 0.260000 0.110000 2.000000 20.000000 0.080000 3.500000 0.000600 0.000000 0.000000 0.450000       
AQ-918           0.450000 0.150000 0.260000 0.110000 2.000000 20.000000 0.080000 3.500000 0.000600 0.000000 0.000000 0.450000       
AQ-1100          0.450000 0.150000 0.260000 0.110000 2.000000 20.000000 0.080000 3.500000 0.000600 0.000000 0.000000 0.450000       
AQ-1101          0.450000 0.150000 0.260000 0.110000 2.000000 20.000000 0.080000 3.500000 0.000600 0.000000 0.000000 0.450000       
AQ-1102          0.450000 0.150000 0.260000 0.110000 2.000000 20.000000 0.080000 3.500000 0.000600 0.000000 0.000000 0.450000       
AQ-1103          0.450000 0.150000 0.260000 0.110000 2.000000 20.000000 0.080000 3.500000 0.000600 0.000000 0.000000 0.450000       
AQ-1104          0.450000 0.150000 0.260000 0.110000 2.000000 20.000000 0.080000 3.500000 0.000600 0.000000 0.000000 0.450000       
AQ-1105          0.450000 0.150000 0.260000 0.110000 2.000000 20.000000 0.080000 3.500000 0.000600 0.000000 0.000000 0.450000       
AQ-1106          0.450000 0.150000 0.260000 0.110000 2.000000 20.000000 0.080000 3.500000 0.000600 0.000000 0.000000 0.450000       
AQ-1107          0.450000 0.150000 0.260000 0.110000 2.000000 20.000000 0.080000 3.500000 0.000600 0.000000 0.000000 0.450000       
AQ-1800          0.450000 0.150000 0.260000 0.110000 2.000000 20.000000 0.080000 3.500000 0.000600 0.000000 0.000000 0.450000       
AQ-1801          0.450000 0.150000 0.260000 0.110000 2.000000 20.000000 0.080000 3.500000 0.000600 0.000000 0.000000 0.450000       
AQ-1802          0.450000 0.150000 0.260000 0.110000 2.000000 20.000000 0.080000 3.500000 0.000600 0.000000 0.000000 0.450000       
AQ-1803          0.450000 0.150000 0.260000 0.110000 2.000000 20.000000 0.080000 3.500000 0.000600 0.000000 0.000000 0.450000       
AQ-1804          0.450000 0.150000 0.260000 0.110000 2.000000 20.000000 0.080000 3.500000 0.000600 0.000000 0.000000 0.450000       
AQ-1805          0.450000 0.150000 0.260000 0.110000 2.000000 20.000000 0.080000 3.500000 0.000600 0.000000 0.000000 0.450000       
AQ-1806          0.450000 0.150000 0.260000 0.110000 2.000000 20.000000 0.080000 3.500000 0.000600 0.000000 0.000000 0.450000       
AQ-1807          0.450000 0.150000 0.260000 0.110000 2.000000 20.000000 0.080000 3.500000 0.000600 0.000000 0.000000 0.450000       
AQ-1808          0.450000 0.150000 0.260000 0.110000 2.000000 20.000000 0.080000 3.500000 0.000600 0.000000 0.000000 0.450000       
AQ-1809          0.450000 0.150000 0.260000 0.110000 2.000000 20.000000 0.080000 3.500000 0.000600 0.000000 0.000000 0.450000       
AQ-1810          0.450000 0.150000 0.260000 0.110000 2.000000 20.000000 0.080000 3.500000 0.000600 0.000000 0.000000 0.450000       
AQ-1811          0.450000 0.150000 0.260000 0.110000 2.000000 20.000000 0.080000 3.500000 0.000600 0.000000 0.000000 0.450000       
AQ-1812          0.450000 0.150000 0.260000 0.110000 2.000000 20.000000 0.080000 3.500000 0.000600 0.000000 0.000000 0.450000       
AQ-1813          0.450000 0.150000 0.260000 0.110000 2.000000 20.000000 0.080000 3.500000 0.000600 0.000000 0.000000 0.450000       
AQ-1814          0.450000 0.150000 0.260000 0.110000 2.000000 20.000000 0.080000 3.500000 0.000600 0.000000 0.000000 0.450000       
AQ-600           0.450000 0.150000 0.260000 0.110000 2.000000 20.000000 0.080000 3.500000 0.001000 0.000000 0.000000 0.450000       