[TITLE]
;;Project Title/Notes

[OPTIONS]
;;Option             Value
FLOW_UNITS           GPM
INFILTRATION         HORTON
FLOW_ROUTING         DYNWAVE
LINK_OFFSETS         DEPTH
MIN_SLOPE            0
ALLOW_PONDING        NO
SKIP_STEADY_STATE    NO

START_DATE           01/01/2002
START_TIME           00:00:00
REPORT_START_DATE    01/01/2002
REPORT_START_TIME    00:00:00
END_DATE             01/01/2002
END_TIME             12:00:00
SWEEP_START          01/01
SWEEP_END            12/31
DRY_DAYS             5.000000
REPORT_STEP          00:05:00
WET_STEP             01:00:00
DRY_STEP             23:00:00
ROUTING_STEP         0:00:05 

INERTIAL_DAMPING     NONE
NORMAL_FLOW_LIMITED  BOTH
FORCE_MAIN_EQUATION  H-W
VARIABLE_STEP        0.75
LENGTHENING_STEP     0
MIN_SURFAREA         12.557
MAX_TRIALS           8
HEAD_TOLERANCE       0.005
SYS_FLOW_TOL         5
LAT_FLOW_TOL         5
MINIMUM_STEP         0
THREADS              1

[EVAPORATION]
;;Data Source    Parameters
;;-------------- ----------------
CONSTANT         0.0
DRY_ONLY         NO

[JUNCTIONS]
;;Name           Elevation  MaxDepth   InitDepth  SurDepth   Aponded   
;;-------------- ---------- ---------- ---------- ---------- ----------
; New Manhole
22               169.660000 0.340000   0.000000   0.000000   0.000000  
; New Manhole
24               169.660000 0.340000   0.000000   0.000000   0.000000  
; New Manhole
26               169.660000 0.340000   0.000000   0.000000   0.000000  
; New Manhole
28               169.660000 0.340000   0.000000   0.000000   0.000000  
; New Manhole
30               181.610000 7.390000   0.000000   0.000000   0.000000  
; New Manhole
48               194.610000 5.610000   0.000000   0.000000   0.000000  
CO-A04-002       159.627778 8.372222   0.000000   0.000000   0.000000  
CO-A04-004       178.000000 10.000000  0.000000   0.000000   0.000000  
CO-A04-005       188.000000 4.000000   0.000000   0.000000   0.000000  
CO-A04-006       196.000000 10.000000  0.000000   0.000000   0.000000  
CO-A04-031       190.000000 10.000000  0.000000   0.000000   0.000000  
CO-A05-003       193.870000 12.130000  0.000000   0.000000   0.000000  
CO-A05-004       185.000000 5.000000   0.000000   0.000000   0.000000  
CO-B02-001       358.000000 10.000000  0.000000   0.000000   0.000000  
CO-B03-001       258.000000 10.000000  0.000000   0.000000   0.000000  
CO-B03-003       286.000000 10.000000  0.000000   0.000000   0.000000  
CO-B03-004       260.000000 10.000000  0.000000   0.000000   0.000000  
CO-B03-005       278.000000 10.000000  0.000000   0.000000   0.000000  
CO-B03-006       326.000000 10.000000  0.000000   0.000000   0.000000  
CO-B03-007       302.000000 10.000000  0.000000   0.000000   0.000000  
CO-B03-010       271.000000 9.000000   0.000000   0.000000   0.000000  
CO-B03-011       269.000000 7.000000   0.000000   0.000000   0.000000  
CO-B04-001       185.000000 9.000000   0.000000   0.000000   0.000000  
CO-B04-006       230.000000 6.000000   0.000000   0.000000   0.000000  
CO-B04-007       233.000000 9.000000   0.000000   0.000000   0.000000  
CO-B04-008       254.000000 10.000000  0.000000   0.000000   0.000000  
CO-B04-009       246.000000 10.000000  0.000000   0.000000   0.000000  
CO-B04-010       244.000000 10.000000  0.000000   0.000000   0.000000  
CO-B04-011       261.000000 7.000000   0.000000   0.000000   0.000000  
CO-B04-013       183.312359 4.687641   0.000000   0.000000   0.000000  
CO-B04-014       201.000000 5.000000   0.000000   0.000000   0.000000  
CO-B04-015       200.000000 10.000000  0.000000   0.000000   0.000000  
CO-B04-016       190.000000 10.000000  0.000000   0.000000   0.000000  
CO-B04-017       188.000000 10.000000  0.000000   0.000000   0.000000  
CO-B04-018       189.370000 2.490000   0.000000   0.000000   0.000000  
CO-B04-019       191.000000 3.000000   0.000000   1000.000000 0.000000  
CO-B04-020       184.770000 4.150000   0.000000   0.000000   0.000000  
CO-B04-021       205.000000 9.000000   0.000000   0.000000   0.000000  
CO-B04-022       212.000000 4.000000   0.000000   0.000000   0.000000  
CO-B04-023       220.000000 4.000000   0.000000   0.000000   0.000000  
CO-B04-024       226.000000 6.000000   0.000000   0.000000   0.000000  
CO-B04-026       224.000000 10.000000  0.000000   0.000000   0.000000  
CO-B04-027       222.000000 8.000000   0.000000   0.000000   0.000000  
CO-B04-028       230.000000 10.000000  0.000000   0.000000   0.000000  
CO-B04-029       233.000000 9.000000   0.000000   0.000000   0.000000  
CO-B04-031       248.000000 10.000000  0.000000   0.000000   0.000000  
CO-B05-013       179.040000 8.960000   0.000000   0.000000   0.000000  
CO-B05-014       180.000000 10.000000  0.000000   0.000000   0.000000  
CO-B05-016       178.310000 15.690000  0.000000   0.000000   0.000000  
CO-B05-017       183.000000 15.000000  0.000000   0.000000   0.000000  
CO-B06-001       168.000000 6.000000   0.000000   0.000000   0.000000  
CO-B06-024       158.000000 10.000000  0.000000   0.000000   0.000000  
CO-B06-025       154.000000 10.000000  0.000000   0.000000   0.000000  
CO-C03-002       362.000000 4.000000   0.000000   0.000000   0.000000  
CO-C03-003       425.000000 10.000000  0.000000   0.000000   0.000000  
CO-C03-004       462.000000 8.000000   0.000000   0.000000   0.000000  
CO-C03-007       318.000000 10.000000  0.000000   0.000000   0.000000  
CO-C03-008       340.087959 4.912041   0.000000   0.000000   0.000000  
CO-C03-009       322.000000 6.000000   0.000000   0.000000   0.000000  
CO-C03-010       332.000000 10.000000  0.000000   0.000000   0.000000  
CO-C03-011       311.510632 4.489368   0.000000   0.000000   0.000000  
CO-C03-012       280.000000 10.000000  0.000000   0.000000   0.000000  
CO-C03-013       296.540748 7.459252   0.000000   0.000000   0.000000  
CO-C03-014       362.000000 10.000000  0.000000   0.000000   0.000000  
CO-C03-016       435.000000 10.000000  0.000000   0.000000   0.000000  
CO-C04-002       228.000000 6.000000   0.000000   0.000000   0.000000  
CO-C04-003       225.199000 4.801000   0.000000   0.000000   0.000000  
CO-C04-004       221.500000 2.500000   0.000000   0.000000   0.000000  
CO-C04-005       226.400000 4.520000   0.000000   0.000000   0.000000  
CO-C04-006       253.575702 6.424298   0.000000   0.000000   0.000000  
CO-C04-007       242.349400 7.650600   0.000000   0.000000   0.000000  
CO-C04-008       269.780382 6.219618   0.000000   0.000000   0.000000  
CO-C04-012       269.356475 10.643525  0.000000   0.000000   0.000000  
CO-C04-013       239.000000 7.000000   0.000000   0.000000   0.000000  
CO-C04-014       247.480000 5.348000   0.000000   0.000000   0.000000  
CO-C05-001       206.890000 5.110000   0.000000   0.000000   0.000000  
CO-C05-004       181.920000 6.600000   0.000000   0.000000   0.000000  
CO-C05-006       199.940000 4.762000   0.000000   0.000000   0.000000  
CO-C05-007       212.200000 1.800000   0.000000   0.000000   0.000000  
CO-C05-009       209.810000 4.328000   0.000000   0.000000   0.000000  
CO-C05-010       212.000000 4.000000   0.000000   0.000000   0.000000  
CO-C05-011       205.000000 7.000000   0.000000   0.000000   0.000000  
CO-C05-012       210.000000 6.000000   0.000000   0.000000   0.000000  
CO-C06-004       168.000000 8.000000   0.000000   0.000000   0.000000  
CO-C06-005       158.000000 10.000000  0.000000   0.000000   0.000000  
CO-C06-009       155.000000 9.000000   0.000000   0.000000   0.000000  
CO-C07-001       156.000000 10.000000  0.000000   0.000000   0.000000  
CO-D01-001       765.000000 10.000000  0.000000   0.000000   0.000000  
CO-D02-001       595.000000 10.000000  0.000000   0.000000   0.000000  
CO-D07-058       136.000000 10.000000  0.000000   0.000000   0.000000  
CO-D08-001       160.000000 10.000000  0.000000   0.000000   0.000000  
LA_COLINA_D      154.000000 8.000000   0.000000   1000.000000 0.000000  
MH-A03-001       189.630000 4.152000   0.000000   0.000000   0.000000  
MH-A03-002       211.430000 4.060000   0.000000   0.000000   0.000000  
MH-A03-003       210.000000 6.000000   0.000000   0.000000   0.000000  
MH-A03-004       209.060000 5.855000   0.000000   0.000000   0.000000  
MH-A03-005       200.500000 11.500000  0.000000   0.000000   0.000000  
MH-A03-007       201.129000 9.650000   0.000000   0.000000   0.000000  
MH-A03-008       199.000000 7.000000   0.000000   0.000000   0.000000  
MH-A03-009       193.300000 6.599000   0.000000   0.000000   0.000000  
MH-A03-011       201.950000 9.062000   0.000000   0.000000   0.000000  
MH-A03-012       196.000000 12.000000  0.000000   0.000000   0.000000  
MH-A03-013       195.309000 8.691000   0.000000   0.000000   0.000000  
MH-A03-014       218.000000 10.000000  0.000000   0.000000   0.000000  
MH-A03-015       210.000000 10.000000  0.000000   0.000000   0.000000  
MH-A03-016       206.000000 10.000000  0.000000   0.000000   0.000000  
MH-A03-017       202.000000 10.000000  0.000000   0.000000   0.000000  
MH-A03-018       198.000000 10.000000  0.000000   0.000000   0.000000  
MH-A03-019       236.000000 10.000000  0.000000   0.000000   0.000000  
MH-A04-001       176.000000 10.000000  0.000000   0.000000   0.000000  
MH-A04-005       161.000000 9.000000   0.000000   0.000000   0.000000  
MH-A04-007       182.000000 4.000000   0.000000   0.000000   0.000000  
MH-A04-021       174.190000 6.610000   0.000000   0.000000   0.000000  
MH-A04-022       180.000000 4.000000   0.000000   0.000000   0.000000  
MH-A04-023       178.000000 8.000000   0.000000   0.000000   0.000000  
MH-A04-024       172.860000 5.632000   0.000000   0.000000   0.000000  
MH-A04-025       176.000000 8.000000   0.000000   0.000000   0.000000  
MH-A04-026       172.000000 10.000000  0.000000   0.000000   0.000000  
MH-A04-027       169.200000 6.800000   0.000000   0.000000   0.000000  
MH-A04-028       168.200000 5.800000   0.000000   0.000000   0.000000  
MH-A04-029       165.180000 6.298000   0.000000   0.000000   0.000000  
MH-A04-030       159.310000 8.601000   0.000000   0.000000   0.000000  
MH-A04-031       152.640000 6.880000   0.000000   0.000000   0.000000  
MH-A04-032       153.020000 6.337000   0.000000   0.000000   0.000000  
MH-A04-033       154.810000 3.890000   0.000000   0.000000   0.000000  
MH-A04-034       170.970000 6.210000   0.000000   0.000000   0.000000  
MH-A04-035       153.200000 8.601000   0.000000   0.000000   0.000000  
MH-A04-036       158.030000 4.714000   0.000000   0.000000   0.000000  
MH-A04-037       165.050000 6.152000   0.000000   0.000000   0.000000  
MH-A04-039       156.010000 7.990000   0.000000   0.000000   0.000000  
MH-A04-040       157.840000 14.160000  0.000000   0.000000   0.000000  
MH-A04-041       160.300000 13.700000  0.000000   0.000000   0.000000  
MH-A04-042       162.000000 8.000000   0.000000   0.000000   0.000000  
MH-A04-043       169.330000 14.670000  0.000000   0.000000   0.000000  
MH-A04-044       170.000000 18.000000  0.000000   0.000000   0.000000  
MH-A04-045       182.000000 10.000000  0.000000   0.000000   0.000000  
MH-A04-046       174.000000 10.000000  0.000000   0.000000   0.000000  
MH-A04-047       174.000000 10.000000  0.000000   0.000000   0.000000  
MH-A04-048       172.000000 10.000000  0.000000   0.000000   0.000000  
MH-A04-049       164.000000 10.000000  0.000000   0.000000   0.000000  
MH-A04-050       176.000000 10.000000  0.000000   0.000000   0.000000  
MH-A04-051       174.000000 10.000000  0.000000   0.000000   0.000000  
MH-A04-052       172.000000 10.000000  0.000000   0.000000   0.000000  
MH-A04-053       175.000000 15.000000  0.000000   0.000000   0.000000  
MH-A04-054       182.000000 10.000000  0.000000   0.000000   0.000000  
MH-A04-055       186.000000 4.000000   0.000000   0.000000   0.000000  
MH-A04-056       188.000000 10.000000  0.000000   0.000000   0.000000  
MH-A04-057       189.000000 11.000000  0.000000   0.000000   0.000000  
MH-A04-058       190.000000 6.000000   0.000000   0.000000   0.000000  
MH-A04-059       191.000000 5.000000   0.000000   0.000000   0.000000  
MH-A04-060       210.000000 8.000000   0.000000   0.000000   0.000000  
MH-A04-063       196.000000 10.000000  0.000000   0.000000   0.000000  
MH-A04-064       186.000000 10.000000  0.000000   0.000000   0.000000  
MH-A04-065       178.000000 6.000000   0.000000   0.000000   0.000000  
MH-A04-067       182.000000 10.000000  0.000000   0.000000   0.000000  
MH-A04-068       175.597626 6.402374   0.000000   0.000000   0.000000  
MH-A04-069       196.000000 10.000000  0.000000   0.000000   0.000000  
MH-A04-070       194.000000 10.000000  0.000000   0.000000   0.000000  
MH-A04-071       180.000000 10.000000  0.000000   0.000000   0.000000  
MH-A04-072       186.000000 10.000000  0.000000   0.000000   0.000000  
MH-A04-073       190.000000 10.000000  0.000000   0.000000   0.000000  
MH-A04-074       194.000000 10.000000  0.000000   0.000000   0.000000  
MH-A04-094       176.847952 5.152048   0.000000   0.000000   0.000000  
MH-A05-002       190.000000 10.000000  0.000000   0.000000   0.000000  
MH-A05-003       184.000000 10.000000  0.000000   0.000000   0.000000  
MH-A05-004       178.000000 10.000000  0.000000   0.000000   0.000000  
MH-A05-005       170.154242 5.845758   0.000000   0.000000   0.000000  
MH-A05-006       164.280000 8.540000   0.000000   0.000000   0.000000  
MH-B02-001       309.120000 10.596000  0.000000   0.000000   0.000000  
MH-B02-002       322.000000 10.000000  0.000000   0.000000   0.000000  
MH-B02-003       307.600000 12.674000  0.000000   0.000000   0.000000  
MH-B03-001       263.000000 7.000000   0.000000   0.000000   0.000000  
MH-B03-003       266.000000 10.000000  0.000000   0.000000   0.000000  
MH-B03-004       270.000000 10.000000  0.000000   0.000000   0.000000  
MH-B03-005       270.000000 10.000000  0.000000   0.000000   0.000000  
MH-B03-007       276.000000 10.000000  0.000000   0.000000   0.000000  
MH-B03-008       270.000000 10.000000  0.000000   0.000000   0.000000  
MH-B03-009       316.000000 10.000000  0.000000   0.000000   0.000000  
MH-B03-010       304.000000 6.000000   0.000000   0.000000   0.000000  
MH-B03-011       303.000000 19.000000  0.000000   0.000000   0.000000  
MH-B03-012       320.000000 10.000000  0.000000   0.000000   0.000000  
MH-B03-013       305.000000 7.000000   0.000000   0.000000   0.000000  
MH-B03-014       301.000000 11.000000  0.000000   0.000000   0.000000  
MH-B03-015       300.000000 10.000000  0.000000   0.000000   0.000000  
MH-B03-016       294.640000 7.002000   0.000000   0.000000   0.000000  
MH-B03-017       303.176560 4.823440   0.000000   0.000000   0.000000  
MH-B03-018       255.603371 8.396629   0.000000   0.000000   0.000000  
MH-B03-019       259.700000 8.300000   0.000000   0.000000   0.000000  
MH-B03-020       260.610000 3.774000   0.000000   0.000000   0.000000  
MH-B03-021       262.220037 7.779963   0.000000   0.000000   0.000000  
MH-B03-023       263.510000 14.490000  0.000000   0.000000   0.000000  
MH-B03-024       270.000000 10.000000  0.000000   0.000000   0.000000  
MH-B03-025       268.000000 10.000000  0.000000   0.000000   0.000000  
MH-B03-026       261.575450 6.424550   0.000000   0.000000   0.000000  
MH-B03-027       243.310000 6.920000   0.000000   0.000000   0.000000  
MH-B03-028       251.368080 8.631920   0.000000   0.000000   0.000000  
MH-B03-029       243.490000 5.920000   0.000000   0.000000   0.000000  
MH-B03-030       235.660000 9.920000   0.000000   0.000000   0.000000  
MH-B03-031       241.680000 6.310000   0.000000   0.000000   0.000000  
MH-B03-032       249.910000 6.267000   0.000000   0.000000   0.000000  
MH-B03-033       251.280000 4.815000   0.000000   0.000000   0.000000  
MH-B03-034       262.570000 6.520000   0.000000   0.000000   0.000000  
MH-B03-035       263.180000 9.741000   0.000000   0.000000   0.000000  
MH-B03-036       263.860000 9.302000   0.000000   0.000000   0.000000  
MH-B03-037       293.820000 3.986000   0.000000   0.000000   0.000000  
MH-B03-038       282.000000 10.000000  0.000000   0.000000   0.000000  
MH-B03-039       284.000000 10.000000  0.000000   0.000000   0.000000  
MH-B03-040       259.810000 5.700000   0.000000   0.000000   0.000000  
MH-B04-001       232.000000 10.000000  0.000000   0.000000   0.000000  
MH-B04-002       248.000000 10.000000  0.000000   0.000000   0.000000  
MH-B04-003       244.000000 10.000000  0.000000   0.000000   0.000000  
MH-B04-004       234.000000 10.000000  0.000000   0.000000   0.000000  
MH-B04-005       232.000000 6.000000   0.000000   0.000000   0.000000  
MH-B04-006       238.000000 10.000000  0.000000   0.000000   0.000000  
MH-B04-007       230.000000 10.000000  0.000000   0.000000   0.000000  
MH-B04-009       242.000000 10.000000  0.000000   0.000000   0.000000  
MH-B04-010       232.000000 10.000000  0.000000   0.000000   0.000000  
MH-B04-011       246.000000 6.000000   0.000000   0.000000   0.000000  
MH-B04-012       260.000000 10.000000  0.000000   0.000000   0.000000  
MH-B04-013       248.000000 8.000000   0.000000   0.000000   0.000000  
MH-B04-014       246.000000 10.000000  0.000000   0.000000   0.000000  
MH-B04-015       244.000000 10.000000  0.000000   0.000000   0.000000  
MH-B04-017       238.000000 10.000000  0.000000   0.000000   0.000000  
MH-B04-018       262.000000 6.000000   0.000000   0.000000   0.000000  
MH-B04-019       260.000000 10.000000  0.000000   0.000000   0.000000  
MH-B04-020       256.000000 10.000000  0.000000   0.000000   0.000000  
MH-B04-021       248.000000 6.000000   0.000000   0.000000   0.000000  
MH-B04-022       234.000000 6.000000   0.000000   0.000000   0.000000  
MH-B04-024       213.094880 12.905120  0.000000   0.000000   0.000000  
MH-B04-025       217.000000 15.000000  0.000000   0.000000   0.000000  
MH-B04-026       219.000000 7.000000   0.000000   0.000000   0.000000  
MH-B04-027       224.000000 10.000000  0.000000   0.000000   0.000000  
MH-B04-028       232.040000 16.350000  0.000000   0.000000   0.000000  
MH-B04-029       174.070000 5.700000   0.000000   0.000000   0.000000  
MH-B04-030       182.400000 10.430000  0.000000   0.000000   0.000000  
MH-B04-032       172.420000 7.590000   0.000000   0.000000   0.000000  
MH-B04-033       172.550000 7.330000   0.000000   0.000000   0.000000  
MH-B04-034       177.810000 5.230000   0.000000   0.000000   0.000000  
MH-B04-035       174.100000 7.890000   0.000000   0.000000   0.000000  
MH-B04-036       223.136612 8.863388   0.000000   0.000000   0.000000  
MH-B04-037       218.910000 6.950000   0.000000   0.000000   0.000000  
MH-B04-038       216.000000 10.000000  0.000000   0.000000   0.000000  
MH-B04-039       210.000000 10.000000  0.000000   0.000000   0.000000  
MH-B04-040       203.000000 9.000000   0.000000   0.000000   0.000000  
MH-B04-041       188.000000 10.000000  0.000000   0.000000   0.000000  
MH-B04-042       188.029786 5.970214   0.000000   0.000000   0.000000  
MH-B04-043       182.545768 9.454232   0.000000   0.000000   0.000000  
MH-B04-044       182.190000 6.800000   0.000000   0.000000   0.000000  
MH-B04-045       197.130000 4.340000   0.000000   0.000000   0.000000  
MH-B04-046       181.720000 8.030000   0.000000   0.000000   0.000000  
MH-B04-047       180.780000 9.360000   0.000000   0.000000   0.000000  
MH-B04-048       182.220000 6.090000   0.000000   0.000000   0.000000  
MH-B04-049       183.040000 6.580000   0.000000   0.000000   0.000000  
MH-B04-050       183.910000 8.460000   0.000000   0.000000   0.000000  
MH-B04-051       184.710000 7.540000   0.000000   0.000000   0.000000  
MH-B04-052       185.240000 8.294000   0.000000   0.000000   0.000000  
MH-B04-053       193.130000 5.790000   0.000000   0.000000   0.000000  
MH-B04-054       193.930000 13.540000  0.000000   0.000000   0.000000  
MH-B04-055       216.000000 10.000000  0.000000   0.000000   0.000000  
MH-B04-056       214.000000 6.000000   0.000000   0.000000   0.000000  
MH-B04-057       224.000000 10.000000  0.000000   0.000000   0.000000  
MH-B04-058       202.614244 25.385756  0.000000   0.000000   0.000000  
MH-B04-059       201.100000 11.750000  0.000000   0.000000   0.000000  
MH-B04-060       211.297053 8.702947   0.000000   0.000000   0.000000  
MH-B04-061       194.910000 8.890000   0.000000   0.000000   0.000000  
MH-B04-062       195.734712 8.265288   0.000000   0.000000   0.000000  
MH-B04-063       199.800000 10.200000  0.000000   0.000000   0.000000  
MH-B04-064       204.460000 10.230000  0.000000   0.000000   0.000000  
MH-B04-065       208.183656 9.816344   0.000000   0.000000   0.000000  
MH-B04-066       230.000000 10.000000  0.000000   0.000000   0.000000  
MH-B04-067       204.000000 10.000000  0.000000   0.000000   0.000000  
MH-B04-068       211.000000 7.000000   0.000000   0.000000   0.000000  
MH-B04-069       221.000000 9.000000   0.000000   0.000000   0.000000  
MH-B04-070       220.000000 14.000000  0.000000   0.000000   0.000000  
MH-B04-071       221.000000 17.000000  0.000000   0.000000   0.000000  
MH-B04-072       222.000000 14.000000  0.000000   0.000000   0.000000  
MH-B04-077       236.000000 10.000000  0.000000   0.000000   0.000000  
MH-B05-001       166.860000 7.140000   0.000000   1000.000000 0.000000  
MH-B05-002       182.760000 9.240000   0.000000   0.000000   0.000000  
MH-B05-012       184.980000 4.950000   0.000000   0.000000   0.000000  
MH-B05-021       181.000000 11.000000  0.000000   0.000000   0.000000  
MH-B05-022       178.420000 9.890000   0.000000   0.000000   0.000000  
MH-B05-023       175.930000 14.060000  0.000000   0.000000   0.000000  
MH-B05-024       177.470000 12.260000  0.000000   0.000000   0.000000  
MH-B05-025       184.230000 9.040000   0.000000   0.000000   0.000000  
MH-B05-026       191.370000 2.630000   0.000000   0.000000   0.000000  
MH-B05-027       186.000000 4.580000   0.000000   0.000000   0.000000  
MH-B05-028       186.080000 7.920000   0.000000   0.000000   0.000000  
MH-B05-029       204.280000 3.720000   0.000000   0.000000   0.000000  
MH-B05-030       196.500000 7.500000   0.000000   0.000000   0.000000  
MH-B05-031       188.630000 6.350000   0.000000   0.000000   0.000000  
MH-B05-032       189.300000 4.700000   0.000000   0.000000   0.000000  
MH-B05-033       190.340000 8.210000   0.000000   0.000000   0.000000  
MH-B05-034       191.280000 10.720000  0.000000   0.000000   0.000000  
MH-B05-035       193.870000 12.130000  0.000000   0.000000   0.000000  
MH-B05-036       200.920000 5.080000   0.000000   0.000000   0.000000  
MH-B05-037       164.990000 9.010000   0.000000   0.000000   0.000000  
MH-B05-038       163.050000 10.620000  0.000000   0.000000   0.000000  
MH-B05-039       192.430000 3.570000   0.000000   0.000000   0.000000  
MH-B05-040       171.120000 10.880000  0.000000   0.000000   0.000000  
MH-B05-041       172.000000 6.000000   0.000000   0.000000   0.000000  
MH-B05-042       172.200000 9.800000   0.000000   0.000000   0.000000  
MH-B05-043       202.000000 10.000000  0.000000   0.000000   0.000000  
MH-B05-044       168.360000 22.050000  0.000000   0.000000   0.000000  
MH-B05-045       169.210000 21.490000  0.000000   0.000000   0.000000  
MH-B05-046       179.650000 8.130000   0.000000   0.000000   0.000000  
MH-B05-047       174.740000 13.170000  0.000000   0.000000   0.000000  
MH-B05-048       171.850000 19.330000  0.000000   0.000000   0.000000  
MH-B05-049       170.830000 20.490000  0.000000   0.000000   0.000000  
MH-B05-050       171.475500 14.524500  0.000000   0.000000   0.000000  
MH-B05-051       178.000000 10.000000  0.000000   0.000000   0.000000  
MH-B05-052       178.330000 5.920000   0.000000   0.000000   0.000000  
MH-B05-053       172.490000 11.510000  0.000000   0.000000   0.000000  
MH-B05-054       175.870000 10.130000  0.000000   0.000000   0.000000  
MH-B05-055       180.740000 5.260000   0.000000   0.000000   0.000000  
MH-B05-057       178.270000 11.240000  0.000000   0.000000   0.000000  
MH-B05-058       178.310000 15.690000  0.000000   0.000000   0.000000  
MH-B05-059       179.000000 19.000000  0.000000   0.000000   0.000000  
MH-B05-060       192.760000 6.294000   0.000000   0.000000   0.000000  
; Split B05-061
MH-B05-061       182.140000 16.890000  0.000000   0.000000   0.000000  
MH-B05-062       192.250000 6.520000   0.000000   0.000000   0.000000  
MH-B05-063       183.590000 14.950000  0.000000   0.000000   0.000000  
MH-B05-064       191.260000 6.630000   0.000000   0.000000   0.000000  
MH-B05-065       184.470000 12.700000  0.000000   0.000000   0.000000  
MH-B05-066       184.840000 9.160000   0.000000   0.000000   0.000000  
MH-B05-067       190.000000 10.000000  0.000000   0.000000   0.000000  
MH-B05-068       182.071000 13.929000  0.000000   0.000000   0.000000  
MH-B05-069       197.670000 7.120000   0.000000   0.000000   0.000000  
MH-B05-070       197.750000 8.250000   0.000000   0.000000   0.000000  
MH-B05-071       193.700000 6.300000   0.000000   0.000000   0.000000  
MH-B05-072       193.280000 6.070000   0.000000   0.000000   0.000000  
MH-B05-073       195.340000 6.660000   0.000000   0.000000   0.000000  
MH-B05-074       198.000000 6.000000   0.000000   0.000000   0.000000  
MH-B05-076       176.480000 9.520000   0.000000   0.000000   0.000000  
MH-B06-004       167.000000 7.000000   0.000000   0.000000   0.000000  
MH-B06-005       166.000000 6.000000   0.000000   0.000000   0.000000  
MH-B06-013       165.040000 7.760000   0.000000   0.000000   0.000000  
MH-B06-014       159.810000 7.750000   0.000000   0.000000   0.000000  
MH-B06-015       156.850000 6.850000   0.000000   0.000000   0.000000  
MH-B06-016       153.640000 7.360000   0.000000   0.000000   0.000000  
MH-B06-017       154.730000 7.770000   0.000000   0.000000   0.000000  
MH-B06-018       154.840000 9.160000   0.000000   0.000000   0.000000  
MH-B06-019       164.000000 6.000000   0.000000   0.000000   0.000000  
MH-B06-020       160.010000 5.700000   0.000000   0.000000   0.000000  
MH-B06-021       157.720000 7.660000   0.000000   0.000000   0.000000  
MH-B06-023       159.570000 7.490000   0.000000   0.000000   0.000000  
MH-B06-024       161.220000 9.310000   0.000000   0.000000   0.000000  
MH-B06-025       164.470000 18.310000  0.000000   0.000000   0.000000  
MH-B06-026       194.000000 10.000000  0.000000   0.000000   0.000000  
MH-B06-027       165.500000 24.500000  0.000000   0.000000   0.000000  
MH-B06-028       165.000000 23.000000  0.000000   0.000000   0.000000  
MH-B06-029       156.000000 10.000000  0.000000   0.000000   0.000000  
MH-B06-030       160.000000 10.000000  0.000000   0.000000   0.000000  
MH-B06-031       154.000000 10.000000  0.000000   0.000000   0.000000  
MH-B06-032       153.000000 9.000000   0.000000   0.000000   0.000000  
MH-B06-033       152.000000 10.000000  0.000000   0.000000   0.000000  
MH-B06-034       150.000000 8.000000   0.000000   0.000000   0.000000  
MH-B06-035       151.860000 6.860000   0.000000   0.000000   0.000000  
MH-B07-031       148.040000 8.390000   0.000000   0.000000   0.000000  
MH-B07-032       149.440000 6.400000   0.000000   0.000000   0.000000  
MH-C01-001       575.000000 10.000000  0.000000   0.000000   0.000000  
MH-C01-002       585.000000 10.000000  0.000000   0.000000   0.000000  
MH-C01-003       620.000000 10.000000  0.000000   0.000000   0.000000  
MH-C01-004       700.000000 10.000000  0.000000   0.000000   0.000000  
MH-C01-005       640.000000 10.000000  0.000000   0.000000   0.000000  
MH-C02-001       525.000000 10.000000  0.000000   0.000000   0.000000  
MH-C02-002       510.000000 10.000000  0.000000   0.000000   0.000000  
MH-C02-003       535.000000 10.000000  0.000000   0.000000   0.000000  
MH-C02-004       525.000000 10.000000  0.000000   0.000000   0.000000  
MH-C02-005       540.000000 10.000000  0.000000   0.000000   0.000000  
MH-C02-006       575.000000 10.000000  0.000000   0.000000   0.000000  
MH-C02-007       611.210000 5.870000   0.000000   0.000000   0.000000  
MH-C02-008       657.820000 3.552000   0.000000   0.000000   0.000000  
MH-C02-009       632.920000 10.996000  0.000000   0.000000   0.000000  
MH-C02-010       646.430203 13.569797  0.000000   0.000000   0.000000  
MH-C02-011       650.000000 15.000000  0.000000   0.000000   0.000000  
MH-C02-012       655.310000 18.325000  0.000000   0.000000   0.000000  
MH-C02-013       675.000000 10.000000  0.000000   0.000000   0.000000  
MH-C02-014       452.000000 8.000000   0.000000   0.000000   0.000000  
MH-C02-015       485.000000 10.000000  0.000000   0.000000   0.000000  
MH-C02-016       465.000000 10.000000  0.000000   0.000000   0.000000  
MH-C02-017       459.490000 5.860000   0.000000   0.000000   0.000000  
MH-C02-018       445.650000 6.790000   0.000000   0.000000   0.000000  
MH-C02-019       465.000000 10.000000  0.000000   0.000000   0.000000  
MH-C02-020       390.000000 10.000000  0.000000   0.000000   0.000000  
MH-C02-021       395.000000 10.000000  0.000000   0.000000   0.000000  
MH-C02-022       420.000000 10.000000  0.000000   0.000000   0.000000  
MH-C02-023       435.000000 10.000000  0.000000   0.000000   0.000000  
MH-C02-024       437.000000 8.000000   0.000000   0.000000   0.000000  
MH-C02-025       455.000000 10.000000  0.000000   0.000000   0.000000  
MH-C02-026       485.000000 10.000000  0.000000   0.000000   0.000000  
MH-C02-027       470.000000 10.000000  0.000000   0.000000   0.000000  
MH-C02-028       490.000000 10.000000  0.000000   0.000000   0.000000  
MH-C02-029       475.000000 10.000000  0.000000   0.000000   0.000000  
MH-C02-030       440.000000 10.000000  0.000000   0.000000   0.000000  
MH-C02-031       415.000000 10.000000  0.000000   0.000000   0.000000  
MH-C02-032       390.000000 10.000000  0.000000   0.000000   0.000000  
MH-C02-033       380.000000 10.000000  0.000000   0.000000   0.000000  