[TITLE]
;;Project Title/Notes

[OPTIONS]
;;Option             Value
FLOW_UNITS           LPS
INFILTRATION         HORTON
FLOW_ROUTING         DYNWAVE
LINK_OFFSETS         DEPTH
MIN_SLOPE            0.001000
ALLOW_PONDING        YES
SKIP_STEADY_STATE    NO

IGNORE_SNOWMELT      YES
IGNORE_GROUNDWATER   YES
IGNORE_QUALITY       YES
START_DATE           08/22/2008
START_TIME           00:00:00
REPORT_START_DATE    08/22/2008
REPORT_START_TIME    00:00:00
END_DATE             08/22/2008
END_TIME             08:00:00
SWEEP_START          01/01
SWEEP_END            12/31
DRY_DAYS             5.000000
REPORT_STEP          00:01:00
WET_STEP             00:10:00
DRY_STEP             00:20:00
ROUTING_STEP         0:00:10 

INERTIAL_DAMPING     PARTIAL
NORMAL_FLOW_LIMITED  SLOPE
FORCE_MAIN_EQUATION  D-W
VARIABLE_STEP        1.00
LENGTHENING_STEP     1
MIN_SURFAREA         0
MAX_TRIALS           8
HEAD_TOLERANCE       0.000100
SYS_FLOW_TOL         5
LAT_FLOW_TOL         5
MINIMUM_STEP         0.5
THREADS              1

[EVAPORATION]
;;Data Source    Parameters
;;-------------- ----------------
CONSTANT         0.000000
DRY_ONLY         NO

[RAINGAGES]
;;Name           Format    Interval SCF      Source    
;;-------------- --------- ------ ------ ----------
; Beehive Raingage
RAINGAGE-3       VOLUME    1.0      1.000000 TIMESERIES TIMESERI-D2     
; GPurkisss Raingage
RAINGAGE-5       VOLUME    1.0      1.000000 TIMESERIES TIMESERI-D2     
; GColeman Raingage
RAINGAGE-7       VOLUME    1.0      1.000000 TIMESERIES TIMESERI-D2     
; GNelson Raingage
RAINGAGE-9       VOLUME    1.0      1.000000 TIMESERIES TIMESERI-D2     

[JUNCTIONS]
;;Name           Elevation  MaxDepth   InitDepth  SurDepth   Aponded   
;;-------------- ---------- ---------- ---------- ---------- ----------
; Sewer Node
1138             19.303000  1.200000   0.000000   0.000000   0.000000  
; Sewer Node
; No depth value - given a value 12 JULY 2010 - HMW
1182             15.908000  2.200000   0.000000   0.000000   0.000000  
; Sewer Node
1242             17.890000  1.820000   0.000000   0.000000   0.000000  
; Sewer Manhole
28749            20.150000  0.850000   0.000000   0.000000   0.000000  
; Sewer Manhole
28750            19.751000  1.347000   0.000000   0.000000   0.000000  
; Sewer Manhole
32870            19.350000  1.500000   0.000000   0.000000   0.000000  
; Mngd O/F To FultonC @ Murphys& GA entry
; dept 2.8 but set lower as poss Mngd OF
33740            18.510000  2.000000   0.000000   0.000000   0.000000  
; Sewer Manhole
33741            19.330000  2.370000   0.000000   0.000000   0.000000  
; Sewer Manhole
40459            18.820000  1.100000   0.000000   0.000000   0.000000  
; Sewer Manhole
40460            18.315000  1.800000   0.000000   0.000000   0.000000  
; Sewer Manhole
40461            17.393000  3.000000   0.000000   0.000000   0.000000  
; Sewer Manhole
40462            17.270000  3.330000   0.000000   0.000000   0.000000  
; Sewer Node
40675            17.930000  1.000000   0.000000   0.000000   0.000000  
; Sewer Node
40698            18.379000  1.179000   0.000000   0.000000   0.000000  
; Sewer Manhole
41319            18.610000  2.150000   0.000000   0.000000   0.000000  
; Sewer Manhole
41320            17.710000  2.160000   0.000000   0.000000   0.000000  
; Sewer Manhole
41321            17.900000  2.440000   0.000000   0.000000   0.000000  
; Sewer Node
41325            17.800000  2.500000   0.000000   0.000000   0.000000  
; Sewer Manhole
43699            18.239000  0.880000   0.000000   0.000000   0.000000  
; Sewer Manhole
43700            18.010000  0.900000   0.000000   0.000000   0.000000  
; Sewer Manhole
43701            18.379000  0.780000   0.000000   0.000000   0.000000  
; Sewer Manhole
; Added a depth value (was 0) - HMW 12 JUL 2010
45877            16.690000  1.400000   0.000000   0.000000   0.000000  
; Sewer Manhole
48981            19.620000  1.670000   0.000000   0.000000   0.000000  
; Sewer Manhole
48982            18.350000  2.740000   0.000000   0.000000   0.000000  
; Sewer Manhole
48983            18.100000  2.770000   0.000000   0.000000   0.000000  
; Sewer Manhole
48984            18.530000  2.690000   0.000000   0.000000   0.000000  
; Sewer Manhole
48985            18.840000  2.190000   0.000000   0.000000   0.000000  
; Sewer Manhole
48986            19.090000  1.740000   0.000000   0.000000   0.000000  
; Sewer Manhole
49025            19.275000  2.130000   0.000000   0.000000   0.000000  
; Sewer Manhole
49026            18.996000  2.070000   0.000000   0.000000   0.000000  
; Sewer Manhole
49027            17.854000  2.690000   0.000000   0.000000   0.000000  
; TFarn. GA entry (RutledgeDrv)
49102            19.920000  1.200000   0.000000   0.000000   0.000000  
; Sewer Manhole
49103            19.670000  1.140000   0.000000   0.000000   0.000000  
; Sewer Manhole
49104            19.380000  2.070000   0.000000   0.000000   0.000000  
; Sewer Manhole
50136            17.621000  1.240000   0.000000   0.000000   0.000000  
; Sewer Manhole
50148            16.390000  2.290000   0.000000   0.000000   0.000000  
; Sewer Manhole
50149            17.630000  0.960000   0.000000   0.000000   0.000000  
; Sewer Manhole
50150            16.620000  2.270000   0.000000   0.000000   0.000000  
; Sewer Manhole
50151            17.140000  1.830000   0.000000   0.000000   0.000000  
; Sewer Manhole
50152            17.310000  1.670000   0.000000   0.000000   0.000000  
; Sewer Manhole
50154            17.260000  1.580000   0.000000   0.000000   0.000000  
; Sewer Manhole
50155            17.430000  1.420000   0.000000   0.000000   0.000000  
; Sewer Manhole
50156            17.740000  1.070000   0.000000   0.000000   0.000000  
; Sewer Manhole
50157            17.760000  1.210000   0.000000   0.000000   0.000000  
; Sewer Manhole
50720            16.540000  1.150000   0.000000   0.000000   0.000000  
; Sewer Manhole
50721            16.950000  0.560000   0.000000   0.000000   0.000000  
; Sewer Main
50831            17.947000  2.000000   0.000000   0.000000   0.000000  
; Sewer Manhole
51200            18.845000  1.305000   0.000000   0.000000   0.000000  
; Sewer Manhole
51201            17.900000  1.500000   0.000000   0.000000   0.000000  
; Sewer Node
51514            16.980000  1.500000   0.000000   0.000000   0.000000  
; Sewer Manhole
51776            20.570000  0.940000   0.000000   0.000000   0.000000  
; Sewer Manhole
51777            20.840000  0.510000   0.000000   0.000000   0.000000  
; Sewer Manhole
51778            20.680000  0.830000   0.000000   0.000000   0.000000  
; Sewer Manhole
51779            20.540000  0.790000   0.000000   0.000000   0.000000  
; Sewer Manhole
51780            20.320000  1.240000   0.000000   0.000000   0.000000  
; Sewer Manhole
51781            20.090000  1.530000   0.000000   0.000000   0.000000  
; Sewer Manhole
51782            20.020000  1.580000   0.000000   0.000000   0.000000  
; Sewer Manhole
51783            19.470000  2.290000   0.000000   0.000000   0.000000  
; Sewer Manhole
53566            19.910000  0.593000   0.000000   0.000000   0.000000  
; Sewer Manhole
53568            19.300000  1.600000   0.000000   0.000000   0.000000  
; Woodbourne (MoD) &GA IN HERE
54               19.400000  1.370000   0.000000   0.000000   0.000000  
; Sewer Manhole
56523            17.410000  2.540000   0.000000   0.000000   0.000000  
; Sewer Manhole
56524            17.300000  2.600000   0.000000   0.000000   0.000000  
; Sewer Node
56525            17.300000  2.630000   0.000000   0.000000   0.000000  
; Sewer Node
56526            17.160000  2.440000   0.000000   0.000000   0.000000  
; Sewer Manhole
56565            19.510000  1.130000   0.000000   0.000000   0.000000  
; Sewer Manhole
56717            20.490000  0.940000   0.000000   0.000000   0.000000  
; Sewer Manhole
56718            19.740000  1.590000   0.000000   0.000000   0.000000  
; Sewer Manhole
56719            20.290000  1.370000   0.000000   0.000000   0.000000  
; Sewer Manhole
56720            19.570000  1.830000   0.000000   0.000000   0.000000  
; Sewer Manhole
56721            19.310000  2.230000   0.000000   0.000000   0.000000  
; Sewer Manhole
56722            18.390000  3.030000   0.000000   0.000000   0.000000  
; Sewer Manhole
; Added depth value (HMW JUL 2010)
56723            18.280000  3.120000   0.000000   0.000000   0.000000  
; Sewer Manhole
56724            20.600000  0.800000   0.000000   0.000000   0.000000  
; Sewer Manhole
56726            19.800000  1.650000   0.000000   0.000000   0.000000  
; Sewer Manhole
56727            19.560000  2.090000   0.000000   0.000000   0.000000  
; Sewer Manhole
57125            21.300000  0.560000   0.000000   0.000000   0.000000  
; Sewer Manhole
57126            21.125000  0.835000   0.000000   0.000000   0.000000  
58744            18.300000  2.040000   0.000000   0.000000   0.000000  
58745            18.330000  2.040000   0.000000   0.000000   0.000000  
58746            18.420000  2.060000   0.000000   0.000000   0.000000  
; Sewer Manhole
59036            19.810000  1.850000   0.000000   0.000000   0.000000  
; Sewer Manhole
59037            20.180000  1.470000   0.000000   0.000000   0.000000  
; TopMurphRd
59038            20.500000  1.140000   0.000000   0.000000   0.000000  
; Sewer Node
59255            20.350000  1.500000   0.000000   0.000000   0.000000  
60045            18.840000  1.830000   0.000000   0.000000   0.000000  
60047            22.690000  2.190000   0.000000   0.000000   0.000000  
60064            19.360000  1.800000   0.000000   0.000000   0.000000  
; Add4XConn
60064A           19.200000  1.750000   0.000000   0.000000   0.000000  
60067            19.450000  1.620000   0.000000   0.000000   0.000000  
; Renwick in Here
60068            19.900000  1.170000   0.000000   0.000000   0.000000  
60069            20.500000  1.400000   0.000000   0.000000   0.000000  
60070            21.060000  1.910000   0.000000   0.000000   0.000000  
60073            24.360000  1.620000   0.000000   0.000000   0.000000  
60075            23.400000  1.170000   0.000000   0.000000   0.000000  
60076            23.830000  1.070000   0.000000   0.000000   0.000000  
60247            27.710000  1.700000   0.000000   0.000000   0.000000  
60248            27.100000  1.870000   0.000000   0.000000   0.000000  
60249            26.330000  1.300000   0.000000   0.000000   0.000000  
60250            25.310000  2.840000   0.000000   0.000000   0.000000  
; end of RM
; Out IS higher then inlet
60255            51.850000  2.760000   0.000000   0.000000   0.000000  
60256            49.600000  1.460000   0.000000   0.000000   0.000000  
60257            45.930000  1.660000   0.000000   0.000000   0.000000  
60258            43.670000  1.030000   0.000000   0.000000   0.000000  
60259            42.270000  2.510000   0.000000   0.000000   0.000000  
60260            41.760000  2.010000   0.000000   0.000000   0.000000  
60261            40.060000  1.500000   0.000000   0.000000   0.000000  
60262            39.350000  1.550000   0.000000   0.000000   0.000000  
60263            38.500000  1.270000   0.000000   0.000000   0.000000  
60264            38.360000  1.440000   0.000000   0.000000   0.000000  
60265            36.810000  1.610000   0.000000   0.000000   0.000000  
60266            36.650000  1.480000   0.000000   0.000000   0.000000  
60267            36.360000  1.700000   0.000000   0.000000   0.000000  
60268            36.160000  2.010000   0.000000   0.000000   0.000000  
60269            35.360000  2.030000   0.000000   0.000000   0.000000  
60270            34.470000  3.250000   0.000000   0.000000   0.000000  
60271            33.690000  3.250000   0.000000   0.000000   0.000000  
60272            33.090000  2.950000   0.000000   0.000000   0.000000  
60273            31.380000  1.070000   0.000000   0.000000   0.000000  
60274            31.110000  1.570000   0.000000   0.000000   0.000000  
60275            30.380000  2.100000   0.000000   0.000000   0.000000  
60276            29.880000  2.510000   0.000000   0.000000   0.000000  
60277            28.500000  2.740000   0.000000   0.000000   0.000000  
60278            27.790000  1.680000   0.000000   0.000000   0.000000  
60314            42.350000  3.600000   0.000000   0.000000   0.000000  
; Sewer Manhole
6205             18.998000  1.460000   0.000000   0.000000   0.000000  
; Sewer Manhole
6206             18.161000  2.130000   0.000000   0.000000   0.000000  
; Sewer Manhole
6207             18.518000  1.808000   0.000000   0.000000   0.000000  
; Sewer Manhole
6208             19.450000  1.020000   0.000000   0.000000   0.000000  
; Sewer Manhole
6209             19.210000  1.430000   0.000000   0.000000   0.000000  
; Sewer Manhole
6210             18.869000  1.837000   0.000000   0.000000   0.000000  
; Sewer Manhole
6211             19.139000  1.787000   0.000000   0.000000   0.000000  
; Sewer Manhole
6212             19.390000  1.837000   0.000000   0.000000   0.000000  
; Sewer Manhole
6213             19.629000  1.685000   0.000000   0.000000   0.000000  
; Top AdamsLn GA entry
6214             19.994000  1.000000   0.000000   0.000000   0.000000  
; Sewer Manhole
6315             18.825000  0.637000   0.000000   0.000000   0.000000  
; Sewer Manhole
6316             19.028000  0.452000   0.000000   0.000000   0.000000  
; Sewer Manhole
6317             19.200000  0.400000   0.000000   0.000000   0.000000  
; Sewer Manhole
6325             16.250000  1.682000   0.000000   0.000000   0.000000  
; Sewer Manhole
6326             16.410000  1.650000   0.000000   0.000000   0.000000  
; Mngd O/F to SWthenOldFairhallStm nr top PurkissSt
6327             16.907000  1.512000   0.000000   0.000000   0.000000  
; Sewer Manhole
6331             17.508000  1.274000   0.000000   0.000000   0.000000  
; RM Disch
6332             18.025000  0.875000   0.000000   500.000000 0.000000  
; Sewer Manhole
6333             18.672000  0.747000   0.000000   0.000000   0.000000  
; Sewer Manhole
; Added a depth value (was 0) - HMW 12 JUL 2010
6335             18.498000  0.750000   0.000000   0.000000   0.000000  
; Sewer Manhole
; Added a depth value (was 0) - HMW 12 JUL 2010
6336             18.400000  1.100000   0.000000   0.000000   0.000000  
; Sewer Manhole
6337             18.623000  1.173000   0.000000   0.000000   0.000000  
; Sewer Manhole
6374             16.962000  0.978000   0.000000   0.000000   0.000000  
; Sewer Manhole
6375             16.654000  0.887000   0.000000   0.000000   0.000000  
; Sewer Manhole
6414             16.898000  0.741000   0.000000   0.000000   0.000000  
; Sewer Manhole
6415             16.701000  0.991000   0.000000   0.000000   0.000000  
; Sewer Manhole
; No depth value - given a value 12 JULY 2010 - HMW
6416             16.882000  0.700000   0.000000   0.000000   0.000000  
; Sewer Manhole
6518             17.382000  3.376000   0.000000   0.000000   0.000000  
; Sewer Manhole
6519             19.508000  1.285000   0.000000   0.000000   0.000000  
; Sewer Manhole
6520             18.040000  2.510000   0.000000   0.000000   0.000000  
; Sewer Manhole
6521             17.600000  2.900000   0.000000   0.000000   0.000000  
; Sewer Manhole
6522             18.390000  2.265000   0.000000   0.000000   0.000000  
; Sewer Manhole
6523             18.720000  1.815000   0.000000   0.000000   0.000000  
; Sewer Manhole
6524             18.930000  1.732000   0.000000   0.000000   0.000000  
; Sewer Manhole
6543             17.696000  0.924000   0.000000   0.000000   0.000000  
; Sewer Manhole
6544             18.003000  0.881000   0.000000   0.000000   0.000000  
; Sewer Manhole
6545             16.892000  1.770000   0.000000   0.000000   0.000000  
; Sewer Manhole
6547             17.120000  1.670000   0.000000   0.000000   0.000000  
; Sewer Manhole
6548             17.100000  1.780000   0.000000   0.000000   0.000000  
; Sewer Manhole
6549             17.405000  1.743000   0.000000   0.000000   0.000000  
; Sewer Manhole
6550             17.770000  1.926000   0.000000   0.000000   0.000000  
; Sewer Manhole
6551             18.224000  1.520000   0.000000   0.000000   0.000000  
; Sewer Manhole
6552             18.337000  1.450000   0.000000   0.000000   0.000000  
; Sewer Manhole
6556             18.453000  1.247000   0.000000   0.000000   0.000000  
; Sewer Manhole
6577             17.645000  1.480000   0.000000   0.000000   0.000000  
; Sewer Manhole
6578             18.033000  0.600000   0.000000   0.000000   0.000000  
; Sewer Manhole
6721             16.590000  1.300000   0.000000   0.000000   0.000000  
; Sewer Manhole
6722             16.432000  1.500000   0.000000   0.000000   0.000000  
; O/F flows to old PS
6824             16.780000  2.000000   0.000000   0.000000   0.000000  
68687            18.040000  2.810000   0.000000   0.000000   0.000000  
; TopRose. GA entry
68702            18.870000  2.110000   0.000000   0.000000   0.000000  
68703            18.510000  2.390000   0.000000   0.000000   0.000000  
68704            18.290000  2.480000   0.000000   0.000000   0.000000  
68705            18.770000  1.880000   0.000000   0.000000   0.000000  
68710            18.950000  1.480000   0.000000   0.000000   0.000000  
68711            19.210000  1.140000   0.000000   0.000000   0.000000  
68712            19.400000  1.100000   0.000000   0.000000   0.000000  
; Sewer Manhole
6956             16.447000  0.800000   0.000000   0.000000   0.000000  
; Sewer Manhole
6957             16.322000  0.900000   0.000000   0.000000   0.000000  
; Sewer Manhole
6958             16.045000  1.439000   0.000000   0.000000   0.000000  
; Mngd O/F to SW nrTaylorRv in HILEY St
; Could construct Mngd OF to  existg 300dia SW to Murp Ck
6959             16.535000  0.650000   0.000000   0.000000   0.000000  
; Sewer Manhole
6960             16.630000  0.591000   0.000000   0.000000   0.000000  
; Sewer Manhole
6961             16.840000  0.930000   0.000000   0.000000   0.000000  
; Sewer Manhole
6962             16.874000  0.866000   0.000000   0.000000   0.000000  
; Sewer Manhole
6963             16.740000  0.600000   0.000000   0.000000   0.000000  
; Sewer Manhole
7000             17.910000  0.590000   0.000000   0.000000   0.000000  
; Sewer Manhole
7131             16.750000  1.590000   0.000000   0.000000   0.000000  
; Sewer Manhole
7161             17.220000  1.410000   0.000000   0.000000   0.000000  
; Sewer Manhole
7162             16.820000  1.610000   0.000000   0.000000   0.000000  
; Sewer Manhole
; Inv16.55 D 1.44 confirmed from IMS
7163             16.550000  1.440000   0.000000   0.000000   0.000000  
; Sewer Manhole
7164             17.100000  0.940000   0.000000   0.000000   0.000000  
; Sewer Manhole
7165             15.520000  2.460000   0.000000   0.000000   0.000000  
; Sewer Manhole
7166             15.690000  2.630000   0.000000   0.000000   0.000000  
; Sewer Manhole
7167             17.380000  1.330000   0.000000   0.000000   0.000000  
; Sewer Manhole
7168             15.340000  2.670000   0.000000   0.000000   0.000000  
; Mngd O/F Nr MurphysStrm @ KinwellDrv
; Sill need to be ~<17.8 to force OF here.
7168A            15.000000  2.750000   0.000000   0.000000   0.000000  
; Sewer Manhole
7169             16.940000  1.370000   0.000000   0.000000   0.000000  
; Sewer Manhole
7170             17.200000  1.100000   0.000000   0.000000   0.000000  
; Sewer Manhole
7201             16.627000  1.408000   0.000000   0.000000   0.000000  
; Sewer Manhole
7202             16.734000  1.548000   0.000000   0.000000   0.000000  
; Sewer Manhole
7203             17.331000  1.597000   0.000000   0.000000   0.000000  
; Sewer Manhole
7204             16.977000  1.615000   0.000000   0.000000   0.000000  
; Sewer Manhole
7205             17.170000  1.932000   0.000000   0.000000   0.000000  
; Sewer Manhole
7207             17.419000  1.753000   0.000000   0.000000   0.000000  
; Sewer Manhole
; Added a depth value (was 0) - HMW 12 JUL 2010
7208             17.648000  1.550000   0.000000   0.000000   0.000000  
; Sewer Manhole
; Added a depth value (was 0) - HMW 12 JUL 2010
7209             18.254000  0.750000   0.000000   0.000000   0.000000  
; Sewer Manhole
7210             17.700000  1.521000   0.000000   0.000000   0.000000  
; Sewer Manhole
; Added a depth value (was 0) - HMW 12 JUL 2010
7211             17.916000  1.550000   0.000000   0.000000   0.000000  
; Sewer Manhole
7212             18.200000  1.518000   0.000000   0.000000   0.000000  
; Sewer Manhole
; Added a depth value (was 0) - HMW 12 JUL 2010
7213             18.455000  1.144000   0.000000   0.000000   0.000000  
; Sewer Manhole
7214             18.896000  0.795000   0.000000   0.000000   0.000000  
; Sewer Manhole
7215             19.000000  0.700000   0.000000   0.000000   0.000000  
; Sewer Manhole
7216             18.450000  1.189000   0.000000   0.000000   0.000000  
; Sewer Manhole
; Added a depth value (was 0) - HMW 12 JUL 2010
7217             18.831000  0.580000   0.000000   0.000000   0.000000  
; Sewer Manhole
7218             18.644000  1.123000   0.000000   0.000000   0.000000  
; Sewer Manhole
7219             18.898000  1.194000   0.000000   0.000000   0.000000  
; Sewer Manhole
7220             19.261000  0.983000   0.000000   0.000000   0.000000  
; Sewer Manhole
7221             19.025000  1.038000   0.000000   0.000000   0.000000  
; Sewer Manhole
7222             19.141000  1.267000   0.000000   0.000000   0.000000  
72289            20.110000  1.290000   0.000000   0.000000   0.000000  
72290            20.370000  1.430000   0.000000   0.000000   0.000000  
72291            18.600000  2.640000   0.000000   0.000000   0.000000  
72374            18.960000  2.790000   0.000000   0.000000   0.000000  
; Sewer Manhole
7291             20.231000  1.342000   0.000000   0.000000   0.000000  
; Sewer Manhole
7292             19.773000  1.565000   0.000000   0.000000   0.000000  
74414            19.880000  1.800000   0.000000   0.000000   0.000000  
; n1 Invert estd from min slope.
74425            19.240000  1.100000   0.000000   0.000000   0.000000  
74649            19.610000  1.650000   0.000000   0.000000   0.000000  
74724            20.180000  1.710000   0.000000   0.000000   0.000000  
74726            19.190000  2.450000   0.000000   0.000000   0.000000  
74727            19.380000  2.350000   0.000000   0.000000   0.000000  
74728            19.570000  1.980000   0.000000   0.000000   0.000000  
74729            19.780000  1.660000   0.000000   0.000000   0.000000  
74730            20.010000  1.610000   0.000000   0.000000   0.000000  
74731            20.170000  1.490000   0.000000   0.000000   0.000000  
74822            20.440000  1.290000   0.000000   0.000000   0.000000  
; Sewer Manhole
7483             18.760000  1.478000   0.000000   0.000000   0.000000  
; Sewer Manhole
; Added a depth value (was 0) - HMW 12 JUL 2010
7484             19.060000  0.700000   0.000000   0.000000   0.000000  
; Sewer Manhole
7485             18.899000  1.039000   0.000000   0.000000   0.000000  
; Sewer Manhole
7486             18.579000  2.008000   0.000000   0.000000   0.000000  
; Sewer Manhole
7487             18.000000  0.905000   0.000000   0.000000   0.000000  
; Sewer Manhole
7488             18.842000  1.146000   0.000000   0.000000   0.000000  
; Sewer Manhole
7489             19.105000  1.301000   0.000000   0.000000   0.000000  
; Sewer Manhole
7490             19.199000  1.180000   0.000000   0.000000   0.000000  
; Sewer Manhole
7491             19.257000  1.201000   0.000000   0.000000   0.000000  
7492             19.370000  1.370000   0.000000   0.000000   0.000000  
; Sewer Manhole
7600             18.200000  1.540000   0.000000   0.000000   0.000000  
; Sewer Manhole
7601             18.352000  1.344000   0.000000   0.000000   0.000000  
; Sewer Manhole
7602             18.657000  1.155000   0.000000   0.000000   0.000000  
; Sewer Manhole
7603             18.751000  1.200000   0.000000   0.000000   0.000000  
; Sewer Manhole
7604             18.860000  1.100000   0.000000   0.000000   0.000000  
; Sewer Manhole
7605             19.066000  1.200000   0.000000   0.000000   0.000000  
; Sewer Manhole
7606             19.071000  1.183000   0.000000   0.000000   0.000000  
; Sewer Manhole
7607             19.297000  1.200000   0.000000   0.000000   0.000000  
; Sewer Manhole
7608             17.561000  3.317000   0.000000   0.000000   0.000000  
; Sewer Manhole
7609             17.935000  3.403000   0.000000   0.000000   0.000000  
; Sewer Manhole
7631             15.840000  2.283000   0.000000   0.000000   0.000000  
; Sewer Manhole
7648             17.953000  0.939000   0.000000   0.000000   0.000000  
; Sewer Manhole
7670             17.550000  1.559000   0.000000   0.000000   0.000000  
; Sewer Manhole
7671             17.896000  0.840000   0.000000   0.000000   0.000000  
; Sewer Manhole
7683             17.580000  1.010000   0.000000   0.000000   0.000000  
; Sewer Manhole
7684             17.020000  1.380000   0.000000   0.000000   0.000000  
; Sewer Manhole
7685             17.150000  1.250000   0.000000   0.000000   0.000000  
; Sewer Manhole
7696             17.300000  1.150000   0.000000   0.000000   0.000000  
; Sewer Manhole
7697             17.450000  1.200000   0.000000   0.000000   0.000000  
77150            18.860000  1.210000   0.000000   0.000000   0.000000  
77151            19.170000  0.970000   0.000000   0.000000   0.000000  
77152            19.320000  0.740000   0.000000   0.000000   0.000000  
; Sewer Manhole
7778             16.855000  1.445000   0.000000   0.000000   0.000000  
; Sewer Manhole
; Added a depth value (was 0) - HMW 12 JUL 2010
7779             16.500000  1.400000   0.000000   0.000000   0.000000  
; Sewer Manhole
7780             16.322000  1.591000   0.000000   0.000000   0.000000  
; Sewer Manhole
7782             15.895000  1.871000   0.000000   0.000000   0.000000  
; Sewer Manhole
7783             16.139000  1.853000   0.000000   0.000000   0.000000  
; Sewer Manhole
; Added a depth value (was 0) - HMW 12 JUL 2010
7784             16.444000  1.650000   0.000000   0.000000   0.000000  
; Sewer Manhole
7786             16.550000  1.450000   0.000000   0.000000   0.000000  
; Sewer Manhole
7787             16.900000  1.375000   0.000000   0.000000   0.000000  
; Sewer Manhole
7788             17.130000  1.088000   0.000000   0.000000   0.000000  
; Sewer Manhole
7789             16.651000  1.463000   0.000000   0.000000   0.000000  
; Mngd O/F back to OldFairhallStm nrEnd PurkissSt
; IMS dpt .94
; Prob site of Mngd OF back to OldFairhall Strm
7790             17.460000  0.940000   0.000000   0.000000   0.000000  
; Sewer Manhole
7791             16.336000  1.450000   0.000000   0.000000   0.000000  
; Sewer Manhole
7792             16.740000  1.800000   0.000000   0.000000   0.000000  
; Poss Mngd O/F to oldFairhallStrm nr end PurkissSt
; Dpt.986.
7793             17.631000  0.986000   0.000000   0.000000   0.000000  
; n1 Invert & Depth estd
78984            18.800000  2.300000   0.000000   0.000000   0.000000  
; Sewer Manhole
7911             16.280000  2.010000   0.000000   0.000000   0.000000  
; Sewer Manhole
7912             15.920000  2.200000   0.000000   0.000000   0.000000  
; Sewer Manhole
7913             20.246000  0.958000   0.000000   0.000000   0.000000  
; Sewer Manhole
7917             17.252000  1.700000   0.000000   0.000000   0.000000  
; Sewer Manhole
7918             17.763000  0.933000   0.000000   0.000000   0.000000  
; Sewer Manhole
7919             17.863000  0.840000   0.000000   0.000000   0.000000  
; Sewer Manhole
7921             17.760000  1.200000   0.000000   0.000000   0.000000  
; Sewer Manhole
8008             17.450000  1.200000   0.000000   0.000000   0.000000  
; Sewer Manhole
8009             17.250000  1.200000   0.000000   0.000000   0.000000  
; Sewer Manhole
8010             19.641000  0.859000   0.000000   0.000000   0.000000  
; Sewer Manhole
8011             19.882000  0.400000   0.000000   0.000000   0.000000  
; Sewer Manhole
8012             19.457000  0.737000   0.000000   0.000000   0.000000  
; Sewer Manhole
; Added a depth value (was 0) - HMW 12 JUL 2010
8013             19.537000  0.693000   0.000000   0.000000   0.000000  
80162            20.590000  1.090000   0.000000   0.000000   0.000000  
80163            21.150000  0.620000   0.000000   0.000000   0.000000  
80166            20.955000  0.735000   0.000000   0.000000   0.000000  
; Sewer Manhole
8027             17.372000  1.295000   0.000000   0.000000   0.000000  
; Sewer Manhole
8062             16.010000  2.400000   0.000000   0.000000   0.000000  
; Sewer Manhole
8063             16.310000  2.100000   0.000000   0.000000   0.000000  
; Sewer Manhole
8064             16.700000  1.900000   0.000000   0.000000   0.000000  
; Sewer Manhole
8065             17.140000  1.400000   0.000000   0.000000   0.000000  
; Sewer Manhole
8137             17.913000  1.830000   0.000000   0.000000   0.000000  
; Sewer Manhole
8138             18.148000  1.704000   0.000000   0.000000   0.000000  
; Sewer Manhole
8139             18.276000  1.719000   0.000000   0.000000   0.000000  
; Sewer Manhole
8140             18.486000  1.420000   0.000000   0.000000   0.000000  
; Sewer Manhole
8141             18.715000  1.231000   0.000000   0.000000   0.000000  
; Sewer Manhole
8142             18.943000  1.173000   0.000000   0.000000   0.000000  
; Sewer Manhole
8160             16.820000  1.590000   0.000000   0.000000   0.000000  
; Sewer Manhole
8161             16.710000  1.680000   0.000000   0.000000   0.000000  
; Sewer Node
F1028            19.585000  1.200000   0.000000   500.000000 0.000000  
; Sewer Node
F1140            15.000000  3.000000   0.000000   500.000000 0.000000  