[OPTIONS]
;Option and Files Scenario Set: BASE, Base Simulation Options
FLOW_UNITS	LPS
INFILTRATION	HORTON
FLOW_ROUTING	DYNWAVE
ALLOW_PONDING	NO
DRY_DAYS	5.000000
SKIP_STEADY_STATE 	NO
IGNORE_RAINFALL	NO
IGNORE_SNOWMELT	NO
IGNORE_GROUNDWATER	NO
IGNORE_QUALITY	NO
FORCE_MAIN_EQUATION	H-W
LINK_OFFSETS	DEPTH
MIN_SLOPE	0.000000
START_DATE	10/19/2011
START_TIME	00:00
END_DATE	10/20/2011
END_TIME	02:00
REPORT_START_DATE	10/19/2011
REPORT_START_TIME	00:00
SWEEP_START	01/01
SWEEP_END	12/31
WET_STEP	01:00:00
DRY_STEP	23:00:00
ROUTING_STEP	1
REPORT_STEP	00:00:01
INERTIAL_DAMPING	NONE
VARIABLE_STEP	0.750000
MINIMUM_STEP	0.5
LENGTHENING_STEP	1
MIN_SURFAREA	0.000000
NORMAL_FLOW_LIMITED	BOTH
MAX_TRIALS	8
HEAD_TOLERANCE	0.001000

[FILES]

[RAINGAGES]

[HYDROGRAPHS]

[TEMPERATURE]

[ADJUSTMENTS]

[SUBCATCHMENTS]

[SUBAREAS]

[INFILTRATION]

[AQUIFERS]

[GROUNDWATER]

[GWF]

[SNOWPACKS]

[JUNCTIONS]
112530	26.260000	1.590000	0.000000	0.000000	0.000000
122874	43.060000	1.550000	0.000000	0.000000	0.000000
122875	44.900000	1.330000	0.000000	0.000000	0.000000
122876	0.000000	0.000000	0.000000	0.000000	0.000000
122877	46.360000	1.190000	0.000000	0.000000	0.000000
122878	47.790000	1.420000	0.000000	0.000000	0.000000
122879	50.550000	1.400000	0.000000	0.000000	0.000000
122880	52.460000	1.740000	0.000000	0.000000	0.000000
122881	44.730000	1.070000	0.000000	0.000000	0.000000
122882	40.376000	2.344000	0.000000	0.000000	0.000000
122883	41.740000	1.140000	0.000000	0.000000	0.000000
122884	42.450000	0.840000	0.000000	0.000000	0.000000
122885	43.340000	1.410000	0.000000	0.000000	0.000000
122886	43.370000	1.930000	0.000000	0.000000	0.000000
122887	43.380000	1.560000	0.000000	0.000000	0.000000
122888	42.210000	1.920000	0.000000	0.000000	0.000000
122889	45.020000	2.170000	0.000000	0.000000	0.000000
122890	46.930000	1.580000	0.000000	0.000000	0.000000
122891	48.780000	1.870000	0.000000	0.000000	0.000000
122892	49.890000	2.210000	0.000000	0.000000	0.000000
122893	51.000000	1.400000	0.000000	0.000000	0.000000
122894	49.490000	1.210000	0.000000	0.000000	0.000000
122896	45.100000	1.390000	0.000000	0.000000	0.000000
122897	46.090000	1.480000	0.000000	0.000000	0.000000
122898	47.250000	1.130000	0.000000	0.000000	0.000000
122899	46.250000	1.600000	0.000000	0.000000	0.000000
122900	47.610000	3.110000	0.000000	0.000000	0.000000
122901	47.940000	2.910000	0.000000	0.000000	0.000000
122902	50.730000	1.350000	0.000000	0.000000	0.000000
122903	52.160000	1.280000	0.000000	0.000000	0.000000
122904	52.280000	1.530000	0.000000	0.000000	0.000000
122905	44.780000	1.820000	0.000000	0.000000	0.000000
122906	44.520000	2.010000	0.000000	0.000000	0.000000
122907	0.000000	0.000000	0.000000	0.000000	0.000000
122909	51.980000	1.220000	0.000000	0.000000	0.000000
122910	44.680000	1.360000	0.000000	0.000000	0.000000
122912	28.990000	2.360000	0.000000	0.000000	0.000000
122913	29.550000	1.520000	0.000000	0.000000	0.000000
122914	30.470000	1.610000	0.000000	0.000000	0.000000
122915	31.360000	2.210000	0.000000	0.000000	0.000000
122916	35.800000	3.500000	0.000000	0.000000	0.000000
122917	36.020000	2.660000	0.000000	0.000000	0.000000
122918	39.650000	3.620000	0.000000	0.000000	0.000000
122919	40.000000	4.530000	0.000000	0.000000	0.000000
122920	40.220000	4.420000	0.000000	0.000000	0.000000
122921	40.640000	3.360000	0.000000	0.000000	0.000000
122922	41.320000	4.470000	0.000000	0.000000	0.000000
122923	42.490000	5.350000	0.000000	0.000000	0.000000
122924	42.770000	3.530000	0.000000	0.000000	0.000000
122925	42.910000	3.110000	0.000000	0.000000	0.000000
122926	45.060000	1.910000	0.000000	0.000000	0.000000
122927	50.850000	2.160000	0.000000	0.000000	0.000000
12313	33.170000	1.850000	0.000000	0.000000	0.000000
12315	33.550000	2.890000	0.000000	0.000000	0.000000
12317	34.610000	2.290000	0.000000	0.000000	0.000000
12319	35.150000	2.040000	0.000000	0.000000	0.000000
12321	38.060000	1.580000	0.000000	0.000000	0.000000
12322	43.910000	1.770000	0.000000	0.000000	0.000000
12324	37.390000	1.550000	0.000000	0.000000	0.000000
12327	32.020000	2.490000	0.000000	0.000000	0.000000
12329	32.330000	2.640000	0.000000	0.000000	0.000000
12331	38.740000	1.910000	0.000000	0.000000	0.000000
12333	32.430000	2.940000	0.000000	0.000000	0.000000
12335	33.790000	1.560000	0.000000	0.000000	0.000000
12337	34.300000	2.040000	0.000000	0.000000	0.000000
12339	34.470000	2.730000	0.000000	0.000000	0.000000
123393	72.490000	1.560000	0.000000	0.000000	0.000000
123394	69.550000	2.230000	0.000000	0.000000	0.000000
123395	64.450000	2.000000	0.000000	0.000000	0.000000
123396	63.800000	2.850000	0.000000	0.000000	0.000000
123397	68.590000	1.430000	0.000000	0.000000	0.000000
123398	72.390000	0.240000	0.000000	0.000000	0.000000
123399	67.420000	1.920000	0.000000	0.000000	0.000000
12344	34.990000	3.550000	0.000000	0.000000	0.000000
12346	35.570000	3.060000	0.000000	0.000000	0.000000
12348	36.980000	1.560000	0.000000	0.000000	0.000000
12350	37.200000	1.430000	0.000000	0.000000	0.000000
12352	38.100000	2.120000	0.000000	0.000000	0.000000
12354	40.510000	1.550000	0.000000	0.000000	0.000000
12356	42.600000	1.580000	0.000000	0.000000	0.000000
12358	44.140000	1.450000	0.000000	0.000000	0.000000
12360	29.580000	1.510000	0.000000	0.000000	0.000000
12362	29.880000	2.420000	0.000000	0.000000	0.000000
12364	30.200000	2.720000	0.000000	0.000000	0.000000
12367	30.610000	3.510000	0.000000	0.000000	0.000000
12369	32.640000	3.000000	0.000000	0.000000	0.000000
12371	31.020000	2.210000	0.000000	0.000000	0.000000
12373	31.410000	2.340000	0.000000	0.000000	0.000000
12375	31.780000	2.540000	0.000000	0.000000	0.000000
12377	32.110000	2.940000	0.000000	0.000000	0.000000
12379	33.690000	2.150000	0.000000	0.000000	0.000000
12381	34.430000	2.290000	0.000000	0.000000	0.000000
12383	34.240000	2.510000	0.000000	0.000000	0.000000
12386	34.820000	3.250000	0.000000	0.000000	0.000000
12389	38.440000	2.040000	0.000000	0.000000	0.000000
12391	39.440000	1.710000	0.000000	0.000000	0.000000
12393	41.860000	1.710000	0.000000	0.000000	0.000000
12395	32.560000	1.900000	0.000000	0.000000	0.000000
12397	32.820000	1.720000	0.000000	0.000000	0.000000
12399	33.990000	1.580000	0.000000	0.000000	0.000000
12401	34.620000	1.440000	0.000000	0.000000	0.000000
12403	34.920000	1.430000	0.000000	0.000000	0.000000
12405	36.820000	1.560000	0.000000	0.000000	0.000000
12407	39.750000	1.740000	0.000000	0.000000	0.000000
12409	41.060000	1.570000	0.000000	0.000000	0.000000
12412	34.500000	2.000000	0.000000	0.000000	0.000000
12414	36.720000	1.580000	0.000000	0.000000	0.000000
12416	40.980000	1.250000	0.000000	0.000000	0.000000
12418	43.650000	1.540000	0.000000	0.000000	0.000000
12421	42.070000	1.260000	0.000000	0.000000	0.000000
12423	37.760000	1.900000	0.000000	0.000000	0.000000
12425	40.020000	1.570000	0.000000	0.000000	0.000000
12427	42.050000	1.570000	0.000000	0.000000	0.000000
12429	44.930000	1.580000	0.000000	0.000000	0.000000
12431	46.450000	1.560000	0.000000	0.000000	0.000000
12434	38.070000	1.810000	0.000000	0.000000	0.000000
12436	54.500000	4.640000	0.000000	0.000000	0.000000
12439	57.550000	2.370000	0.000000	0.000000	0.000000
12441	58.090000	1.970000	0.000000	0.000000	0.000000
12443	59.560000	2.680000	0.000000	0.000000	0.000000
12445	58.120000	2.510000	0.000000	0.000000	0.000000
12447	61.840000	2.190000	0.000000	0.000000	0.000000
12449	64.800000	1.780000	0.000000	0.000000	0.000000
12451	66.830000	1.590000	0.000000	0.000000	0.000000
12453	64.700000	1.610000	0.000000	0.000000	0.000000
12455	65.890000	2.730000	0.000000	0.000000	0.000000
12457	66.170000	2.660000	0.000000	0.000000	0.000000
12459	60.650000	1.960000	0.000000	0.000000	0.000000
12462	61.260000	3.430000	0.000000	0.000000	0.000000
12466	61.570000	0.900000	0.000000	0.000000	0.000000
12468	61.650000	1.700000	0.000000	0.000000	0.000000
12470	62.290000	1.740000	0.000000	0.000000	0.000000
12472	64.080000	1.830000	0.000000	0.000000	0.000000
12583	41.020000	1.700000	0.000000	0.000000	0.000000
12585	43.110000	1.890000	0.000000	0.000000	0.000000
12587	43.140000	1.880000	0.000000	0.000000	0.000000
135222	37.620000	1.070000	0.000000	0.000000	0.000000
135223	37.180000	1.260000	0.000000	0.000000	0.000000
135224	36.510000	2.400000	0.000000	0.000000	0.000000
135225	43.020000	1.230000	0.000000	0.000000	0.000000
135226	43.290000	1.130000	0.000000	0.000000	0.000000
135227	46.230000	1.780000	0.000000	0.000000	0.000000
135228	46.600000	1.400000	0.000000	0.000000	0.000000
135700	24.600000	2.040000	0.000000	0.000000	0.000000
135718	50.440000	1.480000	0.000000	0.000000	0.000000
135719	49.820000	1.370000	0.000000	0.000000	0.000000
135720	48.110000	2.480000	0.000000	0.000000	0.000000
135721	50.410000	1.460000	0.000000	0.000000	0.000000
135722	50.410000	1.450000	0.000000	0.000000	0.000000
135723	48.080000	1.840000	0.000000	0.000000	0.000000
135724	48.190000	1.720000	0.000000	0.000000	0.000000
135725	47.700000	1.720000	0.000000	0.000000	0.000000
135726	47.390000	1.710000	0.000000	0.000000	0.000000
135727	47.830000	1.860000	0.000000	0.000000	0.000000
136688	45.490000	0.950000	0.000000	0.000000	0.000000
137337	67.420000	1.190000	0.000000	0.000000	0.000000
137338	64.800000	1.230000	0.000000	0.000000	0.000000
137339	61.540000	1.660000	0.000000	0.000000	0.000000
137340	60.330000	1.240000	0.000000	0.000000	0.000000
137341	56.020000	2.840000	0.000000	0.000000	0.000000
137342	55.700000	3.130000	0.000000	0.000000	0.000000
137343	66.520000	1.190000	0.000000	0.000000	0.000000
137344	63.200000	2.480000	0.000000	0.000000	0.000000
137345	65.300000	1.450000	0.000000	0.000000	0.000000
137346	61.000000	2.370000	0.000000	0.000000	0.000000
137347	64.750000	1.400000	0.000000	0.000000	0.000000
137348	64.640000	1.360000	0.000000	0.000000	0.000000
137349	0.000000	0.000000	0.000000	0.000000	0.000000
137350	63.100000	1.940000	0.000000	0.000000	0.000000
137351	59.280000	2.020000	0.000000	0.000000	0.000000
137353	57.930000	1.450000	0.000000	0.000000	0.000000
137354	56.600000	2.780000	0.000000	0.000000	0.000000
137355	62.000000	1.470000	0.000000	0.000000	0.000000
137356	61.610000	1.170000	0.000000	0.000000	0.000000
137357	58.270000	1.730000	0.000000	0.000000	0.000000
137358	55.410000	2.630000	0.000000	0.000000	0.000000
137713	55.420000	1.010000	0.000000	0.000000	0.000000
137714	54.730000	1.140000	0.000000	0.000000	0.000000
137715	54.310000	2.980000	0.000000	0.000000	0.000000
137716	52.600000	3.040000	0.000000	0.000000	0.000000
16958	46.700000	0.830000	0.000000	0.000000	0.000000
16960	30.240000	1.510000	0.000000	0.000000	0.000000
17148	23.980000	1.610000	0.000000	0.000000	0.000000
17150	24.920000	1.370000	0.000000	0.000000	0.000000
17152	27.030000	1.320000	0.000000	0.000000	0.000000
17154	28.260000	1.450000	0.000000	0.000000	0.000000
17156	30.100000	2.980000	0.000000	0.000000	0.000000
17158	36.060000	1.450000	0.000000	0.000000	0.000000
17160	39.340000	1.420000	0.000000	0.000000	0.000000
17162	40.720000	1.240000	0.000000	0.000000	0.000000
17164	27.140000	2.080000	0.000000	0.000000	0.000000
17166	28.650000	2.300000	0.000000	0.000000	0.000000
17168	29.010000	1.440000	0.000000	0.000000	0.000000
17170	30.940000	1.420000	0.000000	0.000000	0.000000
17172	28.850000	1.840000	0.000000	0.000000	0.000000
17174	30.360000	1.620000	0.000000	0.000000	0.000000
17176	30.580000	1.760000	0.000000	0.000000	0.000000
17178	30.800000	2.340000	0.000000	0.000000	0.000000
17180	32.310000	1.140000	0.000000	0.000000	0.000000
17182	34.820000	1.250000	0.000000	0.000000	0.000000
17184	35.840000	1.300000	0.000000	0.000000	0.000000
17186	31.470000	1.570000	0.000000	0.000000	0.000000
17449	43.270000	3.730000	0.000000	0.000000	0.000000
17451	46.300000	3.700000	0.000000	0.000000	0.000000
17453	50.020000	1.980000	0.000000	0.000000	0.000000
17455	51.250000	1.800000	0.000000	0.000000	0.000000
17457	51.720000	1.580000	0.000000	0.000000	0.000000
17459	53.170000	0.380000	0.000000	0.000000	0.000000
17461	47.250000	2.150000	0.000000	0.000000	0.000000
17463	50.700000	0.800000	0.000000	0.000000	0.000000
17465	43.630000	3.820000	0.000000	0.000000	0.000000
17467	47.220000	1.710000	0.000000	0.000000	0.000000
17813	34.080000	1.140000	0.000000	0.000000	0.000000
17815	37.910000	1.460000	0.000000	0.000000	0.000000
17817	38.640000	1.120000	0.000000	0.000000	0.000000
17819	35.810000	1.520000	0.000000	0.000000	0.000000
17821	36.900000	1.160000	0.000000	0.000000	0.000000
18148	46.440000	2.510000	0.000000	0.000000	0.000000
18150	47.810000	1.370000	0.000000	0.000000	0.000000
18152	48.230000	1.730000	0.000000	0.000000	0.000000
18154	48.650000	2.390000	0.000000	0.000000	0.000000
18156	48.820000	3.000000	0.000000	0.000000	0.000000
18158	49.250000	3.510000	0.000000	0.000000	0.000000
18160	50.970000	2.120000	0.000000	0.000000	0.000000
18162	51.560000	3.620000	0.000000	0.000000	0.000000
18164	53.660000	2.700000	0.000000	0.000000	0.000000
18166	53.990000	2.880000	0.000000	0.000000	0.000000
18168	54.550000	1.910000	0.000000	0.000000	0.000000
18170	54.900000	2.150000	0.000000	0.000000	0.000000
18172	55.520000	2.650000	0.000000	0.000000	0.000000
18176	55.170000	1.710000	0.000000	0.000000	0.000000
18178	55.920000	1.720000	0.000000	0.000000	0.000000
18180	56.290000	1.400000	0.000000	0.000000	0.000000
18182	57.440000	1.550000	0.000000	0.000000	0.000000
18184	60.150000	1.480000	0.000000	0.000000	0.000000
18186	61.510000	1.620000	0.000000	0.000000	0.000000
18188	62.980000	2.010000	0.000000	0.000000	0.000000
18190	0.000000	58.600000	0.000000	0.000000	0.000000
18192	0.000000	64.390000	0.000000	0.000000	0.000000
18194	0.000000	0.000000	0.000000	0.000000	0.000000
18196	48.560000	1.440000	0.000000	0.000000	0.000000
18198	49.020000	2.300000	0.000000	0.000000	0.000000
18200	49.260000	2.210000	0.000000	0.000000	0.000000
18202	49.490000	2.020000	0.000000	0.000000	0.000000
18204	50.500000	2.030000	0.000000	0.000000	0.000000
18206	50.850000	1.980000	0.000000	0.000000	0.000000
18208	51.190000	2.030000	0.000000	0.000000	0.000000
18210	52.040000	2.020000	0.000000	0.000000	0.000000
18212	56.400000	1.800000	0.000000	0.000000	0.000000
18214	0.000000	62.440000	0.000000	0.000000	0.000000
18216	50.080000	1.860000	0.000000	0.000000	0.000000
18218	50.860000	1.700000	0.000000	0.000000	0.000000
18220	54.250000	2.290000	0.000000	0.000000	0.000000
18222	58.270000	2.060000	0.000000	0.000000	0.000000
18224	59.100000	2.000000	0.000000	0.000000	0.000000
18226	0.000000	62.410000	0.000000	0.000000	0.000000
18228	53.420000	1.860000	0.000000	0.000000	0.000000
18230	58.310000	1.720000	0.000000	0.000000	0.000000
18232	0.000000	61.110000	0.000000	0.000000	0.000000
18316	54.260000	1.870000	0.000000	0.000000	0.000000
18317	57.790000	1.180000	0.000000	0.000000	0.000000
18319	53.860000	2.220000	0.000000	0.000000	0.000000
18321	54.820000	1.150000	0.000000	0.000000	0.000000
18323	54.350000	1.720000	0.000000	0.000000	0.000000
18325	56.370000	1.110000	0.000000	0.000000	0.000000
18327	57.890000	1.130000	0.000000	0.000000	0.000000
18329	54.490000	1.870000	0.000000	0.000000	0.000000
18331	55.140000	1.560000	0.000000	0.000000	0.000000
18333	57.300000	1.890000	0.000000	0.000000	0.000000
18335	57.980000	0.900000	0.000000	0.000000	0.000000
18337	58.120000	1.000000	0.000000	0.000000	0.000000
18339	58.270000	0.980000	0.000000	0.000000	0.000000
18341	59.880000	0.880000	0.000000	0.000000	0.000000
18343	60.170000	1.330000	0.000000	0.000000	0.000000
18345	60.480000	1.000000	0.000000	0.000000	0.000000
18357	62.980000	2.220000	0.000000	0.000000	0.000000
18359	64.590000	1.470000	0.000000	0.000000	0.000000
18361	69.620000	1.380000	0.000000	0.000000	0.000000
18363	64.020000	2.480000	0.000000	0.000000	0.000000
18825	36.090000	1.530000	0.000000	0.000000	0.000000
18827	37.680000	1.530000	0.000000	0.000000	0.000000
18829	40.080000	1.570000	0.000000	0.000000	0.000000
18831	43.180000	1.550000	0.000000	0.000000	0.000000
18917	23.780000	2.840000	0.000000	0.000000	0.000000
18919	24.500000	2.360000	0.000000	0.000000	0.000000
18959	50.550000	2.360000	0.000000	0.000000	0.000000
18961	51.680000	1.910000	0.000000	0.000000	0.000000
18963	54.480000	1.290000	0.000000	0.000000	0.000000
18965	50.400000	1.290000	0.000000	0.000000	0.000000
18967	49.440000	2.480000	0.000000	0.000000	0.000000
19566	57.980000	2.300000	0.000000	0.000000	0.000000
19568	64.460000	1.770000	0.000000	0.000000	0.000000
19570	64.740000	2.410000	0.000000	0.000000	0.000000
19572	65.150000	1.730000	0.000000	0.000000	0.000000
19574	60.800000	2.500000	0.000000	0.000000	0.000000
19578	61.100000	2.100000	0.000000	0.000000	0.000000
19582	64.560000	1.780000	0.000000	0.000000	0.000000
19584	64.760000	1.600000	0.000000	0.000000	0.000000
19589	59.220000	1.680000	0.000000	0.000000	0.000000
19665	34.860000	3.060000	0.000000	0.000000	0.000000
19667	35.280000	3.190000	0.000000	0.000000	0.000000
19669	35.850000	3.520000	0.000000	0.000000	0.000000
19671	36.130000	3.800000	0.000000	0.000000	0.000000
19673	36.290000	4.150000	0.000000	0.000000	0.000000
19675	39.190000	2.650000	0.000000	0.000000	0.000000
19677	41.380000	1.540000	0.000000	0.000000	0.000000
19679	42.560000	1.720000	0.000000	0.000000	0.000000
19681	42.790000	1.730000	0.000000	0.000000	0.000000
19689	36.510000	3.600000	0.000000	0.000000	0.000000
19691	39.260000	1.870000	0.000000	0.000000	0.000000
19693	43.400000	2.220000	0.000000	0.000000	0.000000
19695	46.320000	1.340000	0.000000	0.000000	0.000000
19697	47.010000	1.190000	0.000000	0.000000	0.000000
19699	44.600000	2.460000	0.000000	0.000000	0.000000
19701	46.400000	1.120000	0.000000	0.000000	0.000000
19703	41.530000	2.840000	0.000000	0.000000	0.000000
19705	41.970000	2.300000	0.000000	0.000000	0.000000
19707	43.940000	1.800000	0.000000	0.000000	0.000000
19709	45.280000	1.560000	0.000000	0.000000	0.000000
19711	36.740000	3.160000	0.000000	0.000000	0.000000
19713	40.210000	1.650000	0.000000	0.000000	0.000000
19992	24.390000	1.120000	0.000000	0.000000	0.000000
19995	24.780000	1.080000	0.000000	0.000000	0.000000
19998	25.190000	1.890000	0.000000	0.000000	0.000000
20001	25.530000	1.480000	0.000000	0.000000	0.000000
20004	25.900000	1.090000	0.000000	0.000000	0.000000
20007	26.020000	1.460000	0.000000	0.000000	0.000000
20010	26.220000	1.640000	0.000000	0.000000	0.000000
20013	26.590000	1.830000	0.000000	0.000000	0.000000
20016	26.810000	1.610000	0.000000	0.000000	0.000000
20019	28.440000	1.170000	0.000000	0.000000	0.000000
20022	29.040000	1.390000	0.000000	0.000000	0.000000
20025	29.420000	2.170000	0.000000	0.000000	0.000000
20028	29.730000	1.790000	0.000000	0.000000	0.000000
20031	29.850000	2.020000	0.000000	0.000000	0.000000
20034	30.850000	1.600000	0.000000	0.000000	0.000000
20037	33.330000	1.810000	0.000000	0.000000	0.000000
20040	37.010000	1.390000	0.000000	0.000000	0.000000
20043	38.610000	1.370000	0.000000	0.000000	0.000000
20046	28.340000	1.420000	0.000000	0.000000	0.000000
20049	29.780000	1.260000	0.000000	0.000000	0.000000
20052	30.530000	1.590000	0.000000	0.000000	0.000000
20055	31.190000	1.180000	0.000000	0.000000	0.000000
20058	31.720000	1.390000	0.000000	0.000000	0.000000
20061	32.100000	1.680000	0.000000	0.000000	0.000000
20064	32.380000	1.250000	0.000000	0.000000	0.000000
20067	32.810000	1.170000	0.000000	0.000000	0.000000
20070	35.200000	1.110000	0.000000	0.000000	0.000000
20073	31.420000	1.050000	0.000000	0.000000	0.000000
20076	52.930000	1.790000	0.000000	0.000000	0.000000
20079	54.340000	1.980000	0.000000	0.000000	0.000000
20082	54.480000	1.680000	0.000000	0.000000	0.000000
20085	55.090000	1.570000	0.000000	0.000000	0.000000
20088	55.410000	1.500000	0.000000	0.000000	0.000000
20091	56.500000	1.520000	0.000000	0.000000	0.000000
20094	57.610000	1.520000	0.000000	0.000000	0.000000
20097	59.380000	1.420000	0.000000	0.000000	0.000000
20100	61.720000	1.540000	0.000000	0.000000	0.000000
20103	63.130000	1.560000	0.000000	0.000000	0.000000
20106	53.930000	2.380000	0.000000	0.000000	0.000000
20109	54.820000	1.760000	0.000000	0.000000	0.000000
20112	54.940000	1.720000	0.000000	0.000000	0.000000
20115	55.930000	1.450000	0.000000	0.000000	0.000000
20118	56.120000	1.650000	0.000000	0.000000	0.000000
20121	58.830000	1.640000	0.000000	0.000000	0.000000
20124	60.510000	1.710000	0.000000	0.000000	0.000000
20127	61.580000	1.790000	0.000000	0.000000	0.000000
20130	63.190000	1.810000	0.000000	0.000000	0.000000
20133	55.010000	1.640000	0.000000	0.000000	0.000000
20136	55.390000	1.210000	0.000000	0.000000	0.000000
20139	46.670000	2.100000	0.000000	0.000000	0.000000
20142	46.920000	2.890000	0.000000	0.000000	0.000000
20145	47.430000	3.110000	0.000000	0.000000	0.000000
20148	48.000000	2.560000	0.000000	0.000000	0.000000
20151	49.630000	1.450000	0.000000	0.000000	0.000000
20154	50.510000	1.770000	0.000000	0.000000	0.000000
20157	52.520000	1.530000	0.000000	0.000000	0.000000
20160	54.220000	1.810000	0.000000	0.000000	0.000000
20163	54.480000	2.210000	0.000000	0.000000	0.000000
20166	54.810000	2.790000	0.000000	0.000000	0.000000
20169	50.750000	2.330000	0.000000	0.000000	0.000000
20172	51.330000	1.880000	0.000000	0.000000	0.000000
20175	52.620000	1.890000	0.000000	0.000000	0.000000
20178	55.420000	1.920000	0.000000	0.000000	0.000000
20181	57.680000	1.400000	0.000000	0.000000	0.000000
20184	54.110000	2.190000	0.000000	0.000000	0.000000
20187	55.800000	1.620000	0.000000	0.000000	0.000000
20190	55.160000	1.910000	0.000000	0.000000	0.000000
20193	56.880000	1.900000	0.000000	0.000000	0.000000
20196	53.080000	1.740000	0.000000	0.000000	0.000000
20259	25.150000	1.720000	0.000000	0.000000	0.000000
20261	0.000000	0.000000	0.000000	0.000000	0.000000
20276	55.700000	1.650000	0.000000	0.000000	0.000000
20279	55.700000	1.510000	0.000000	0.000000	0.000000
20282	55.950000	1.300000	0.000000	0.000000	0.000000
20285	57.010000	2.970000	0.000000	0.000000	0.000000
20288	57.720000	1.460000	0.000000	0.000000	0.000000
20291	59.530000	1.760000	0.000000	0.000000	0.000000
20294	61.220000	1.230000	0.000000	0.000000	0.000000
20297	0.000000	0.000000	0.000000	0.000000	0.000000
20300	55.990000	1.270000	0.000000	0.000000	0.000000
20303	58.260000	2.400000	0.000000	0.000000	0.000000
20306	57.550000	1.530000	0.000000	0.000000	0.000000
20309	57.900000	1.600000	0.000000	0.000000	0.000000
20312	58.150000	1.290000	0.000000	0.000000	0.000000
20315	59.160000	2.030000	0.000000	0.000000	0.000000
20318	60.830000	1.440000	0.000000	0.000000	0.000000
20321	58.510000	1.150000	0.000000	0.000000	0.000000
20324	60.720000	1.590000	0.000000	0.000000	0.000000
20327	61.090000	1.150000	0.000000	0.000000	0.000000
20328	50.560000	1.590000	0.000000	0.000000	0.000000
20331	26.930000	1.540000	0.000000	0.000000	0.000000
20334	27.460000	1.520000	0.000000	0.000000	0.000000
20337	27.850000	0.870000	0.000000	0.000000	0.000000
20340	28.130000	1.010000	0.000000	0.000000	0.000000
20343	28.250000	0.930000	0.000000	0.000000	0.000000
20346	28.790000	0.830000	0.000000	0.000000	0.000000
20349	29.750000	0.930000	0.000000	0.000000	0.000000
20352	30.710000	0.160000	0.000000	0.000000	0.000000
20355	27.130000	1.550000	0.000000	0.000000	0.000000
20358	27.580000	1.400000	0.000000	0.000000	0.000000
20361	28.100000	1.440000	0.000000	0.000000	0.000000
20364	28.180000	1.270000	0.000000	0.000000	0.000000
20367	28.390000	1.560000	0.000000	0.000000	0.000000
20370	29.180000	0.890000	0.000000	0.000000	0.000000
20373	29.400000	1.010000	0.000000	0.000000	0.000000
20376	27.470000	1.300000	0.000000	0.000000	0.000000
20379	28.430000	1.240000	0.000000	0.000000	0.000000
20382	27.980000	1.250000	0.000000	0.000000	0.000000
20385	0.000000	0.000000	0.000000	0.000000	0.000000
20388	28.450000	1.180000	0.000000	0.000000	0.000000
20391	28.730000	1.130000	0.000000	0.000000	0.000000
20394	27.950000	1.020000	0.000000	0.000000	0.000000
20397	28.250000	1.060000	0.000000	0.000000	0.000000
20400	26.630000	1.450000	0.000000	0.000000	0.000000
20403	27.120000	1.230000	0.000000	0.000000	0.000000
20406	27.600000	1.180000	0.000000	0.000000	0.000000
20409	28.110000	0.910000	0.000000	0.000000	0.000000
20412	28.700000	1.250000	0.000000	0.000000	0.000000
20417	47.700000	2.510000	0.000000	0.000000	0.000000
20420	47.620000	2.380000	0.000000	0.000000	0.000000
6635	27.464000	1.200000	0.000000	0.000000	0.000000
6636	27.740000	1.470000	0.000000	0.000000	0.000000
6637	27.930000	2.410000	0.000000	0.000000	0.000000
6638	28.250000	0.650000	0.000000	0.000000	0.000000
6639	29.520000	0.930000	0.000000	0.000000	0.000000
6640	30.850000	1.100000	0.000000	0.000000	0.000000
6641	32.070000	0.700000	0.000000	0.000000	0.000000
6642	32.740000	2.220000	0.000000	0.000000	0.000000
6643	37.840000	1.660000	0.000000	0.000000	0.000000
6646	43.440000	0.990000	0.000000	0.000000	0.000000
6651	51.860000	3.230000	0.000000	0.000000	0.000000
6652	55.330000	1.520000	0.000000	0.000000	0.000000
6653	59.250000	1.870000	0.000000	0.000000	0.000000
6654	59.700000	2.500000	0.000000	0.000000	0.000000
6655	66.210000	2.060000	0.000000	0.000000	0.000000
6656	72.890000	1.210000	0.000000	0.000000	0.000000
6657	73.890000	2.610000	0.000000	0.000000	0.000000
6658	28.240000	1.970000	0.000000	0.000000	0.000000
6659	28.570000	1.930000	0.000000	0.000000	0.000000
6660	28.880000	1.510000	0.000000	0.000000	0.000000
6661	29.430000	1.410000	0.000000	0.000000	0.000000
6662	30.880000	1.330000	0.000000	0.000000	0.000000
6663	33.100000	2.140000	0.000000	0.000000	0.000000
6664	35.790000	1.970000	0.000000	0.000000	0.000000
6665	39.140000	1.390000	0.000000	0.000000	0.000000
6666	39.990000	1.460000	0.000000	0.000000	0.000000
6667	40.610000	2.110000	0.000000	0.000000	0.000000
6668	41.960000	1.920000	0.000000	0.000000	0.000000
6669	42.130000	2.080000	0.000000	0.000000	0.000000
6670	47.755000	2.245000	0.000000	0.000000	0.000000
6671	49.620000	1.510000	0.000000	0.000000	0.000000
6672	52.650000	1.310000	0.000000	0.000000	0.000000
6673	58.280000	2.010000	0.000000	0.000000	0.000000
6675	45.850000	1.140000	0.000000	0.000000	0.000000
6676	45.320000	1.140000	0.000000	0.000000	0.000000
6677	47.240000	1.680000	0.000000	0.000000	0.000000
6678	49.280000	1.640000	0.000000	0.000000	0.000000
6679	49.830000	1.560000	0.000000	0.000000	0.000000
6680	53.650000	0.650000	0.000000	0.000000	0.000000
6681	55.050000	1.440000	0.000000	0.000000	0.000000
6682	58.540000	0.850000	0.000000	0.000000	0.000000
6683	59.740000	2.600000	0.000000	0.000000	0.000000
6684	61.670000	1.670000	0.000000	0.000000	0.000000
6685	70.130000	1.400000	0.000000	0.000000	0.000000
6687	51.310000	1.930000	0.000000	0.000000	0.000000
6688	53.080000	1.730000	0.000000	0.000000	0.000000
6689	55.780000	1.140000	0.000000	0.000000	0.000000
6690	58.520000	2.280000	0.000000	0.000000	0.000000
6691	62.120000	1.330000	0.000000	0.000000	0.000000
6692	68.920000	0.410000	0.000000	0.000000	0.000000
6693	54.740000	1.820000	0.000000	0.000000	0.000000
6694	57.230000	1.140000	0.000000	0.000000	0.000000
6695	60.970000	1.470000	0.000000	0.000000	0.000000
6696	61.620000	0.930000	0.000000	0.000000	0.000000
6697	67.940000	2.840000	0.000000	0.000000	0.000000
6698	43.600000	1.500000	0.000000	0.000000	0.000000
6699	46.290000	1.010000	0.000000	0.000000	0.000000
6700	48.490000	1.560000	0.000000	0.000000	0.000000
6701	51.800000	1.030000	0.000000	0.000000	0.000000
6702	30.240000	0.630000	0.000000	0.000000	0.000000
6703	32.210000	1.280000	0.000000	0.000000	0.000000
6704	35.880000	1.050000	0.000000	0.000000	0.000000
6705	40.640000	1.160000	0.000000	0.000000	0.000000
6706	40.790000	1.820000	0.000000	0.000000	0.000000
6707	35.670000	1.230000	0.000000	0.000000	0.000000
6708	36.300000	1.050000	0.000000	0.000000	0.000000
6709	36.480000	1.370000	0.000000	0.000000	0.000000
6710	50.750000	3.220000	0.000000	0.000000	0.000000
6711	52.320000	2.430000	0.000000	0.000000	0.000000
6712	58.040000	1.360000	0.000000	0.000000	0.000000
6713	64.400000	1.470000	0.000000	0.000000	0.000000
6714	69.780000	1.050000	0.000000	0.000000	0.000000
6715	36.350000	1.390000	0.000000	0.000000	0.000000
6716	34.700000	1.240000	0.000000	0.000000	0.000000
6717	45.310000	1.370000	0.000000	0.000000	0.000000
6718	51.720000	1.180000	0.000000	0.000000	0.000000
6719	52.160000	1.880000	0.000000	0.000000	0.000000
6720	59.050000	2.040000	0.000000	0.000000	0.000000
6721	58.400000	0.900000	0.000000	0.000000	0.000000
6722	33.570000	1.180000	0.000000	0.000000	0.000000
6723	69.790000	1.230000	0.000000	0.000000	0.000000
6724	47.790000	1.710000	0.000000	0.000000	0.000000
6725	48.110000	0.930000	0.000000	0.000000	0.000000
6726	48.620000	1.280000	0.000000	0.000000	0.000000
6727	50.380000	1.620000	0.000000	0.000000	0.000000
6728	50.530000	1.970000	0.000000	0.000000	0.000000
6729	52.030000	1.340000	0.000000	0.000000	0.000000
6730	52.290000	1.540000	0.000000	0.000000	0.000000
6731	52.550000	1.440000	0.000000	0.000000	0.000000
6732	54.810000	1.200000	0.000000	0.000000	0.000000
6733	54.917000	1.093000	0.000000	0.000000	0.000000
6734	53.190000	1.800000	0.000000	0.000000	0.000000
6735	54.450000	1.220000	0.000000	0.000000	0.000000
6736	53.400000	2.600000	0.000000	0.000000	0.000000
6737	53.940000	2.590000	0.000000	0.000000	0.000000
6738	27.100000	3.810000	0.000000	0.000000	0.000000
6739	31.500000	1.500000	0.000000	0.000000	0.000000
6740	32.330000	2.470000	0.000000	0.000000	0.000000
6741	32.670000	2.130000	0.000000	0.000000	0.000000
6742	32.790000	3.060000	0.000000	0.000000	0.000000
6743	33.090000	2.900000	0.000000	0.000000	0.000000
6744	38.520000	1.410000	0.000000	0.000000	0.000000
6745	39.430000	1.940000	0.000000	0.000000	0.000000
6746	41.110000	2.010000	0.000000	0.000000	0.000000
6747	41.650000	3.200000	0.000000	0.000000	0.000000
6748	41.910000	1.540000	0.000000	0.000000	0.000000
6749	42.040000	2.700000	0.000000	0.000000	0.000000
6750	42.720000	1.180000	0.000000	0.000000	0.000000
6751	43.110000	1.420000	0.000000	0.000000	0.000000
6752	44.260000	1.570000	0.000000	0.000000	0.000000
6754	58.020000	3.010000	0.000000	0.000000	0.000000
6755	27.530000	2.740000	0.000000	0.000000	0.000000
6756	27.710000	1.330000	0.000000	0.000000	0.000000
6757	28.770000	1.900000	0.000000	0.000000	0.000000
6758	30.010000	1.370000	0.000000	0.000000	0.000000
6759	31.230000	1.260000	0.000000	0.000000	0.000000
6760	33.150000	1.450000	0.000000	0.000000	0.000000
6761	33.360000	1.490000	0.000000	0.000000	0.000000
6762	34.780000	1.680000	0.000000	0.000000	0.000000