[TITLE]
;;Project Title/Notes

[OPTIONS]
;;Option             Value
FLOW_UNITS           GPM
INFILTRATION         HORTON
FLOW_ROUTING         DYNWAVE
LINK_OFFSETS         DEPTH
MIN_SLOPE            0
ALLOW_PONDING        YES
SKIP_STEADY_STATE    NO

START_DATE           02/01/2017
START_TIME           00:00:00
REPORT_START_DATE    02/01/2017
REPORT_START_TIME    00:00:00
END_DATE             02/06/2017
END_TIME             03:00:00
SWEEP_START          01/01
SWEEP_END            01/01
DRY_DAYS             5.000000
REPORT_STEP          00:05:00
WET_STEP             00:05:00
DRY_STEP             01:00:00
ROUTING_STEP         0:00:30 

INERTIAL_DAMPING     NONE
NORMAL_FLOW_LIMITED  BOTH
FORCE_MAIN_EQUATION  H-W
VARIABLE_STEP        0.75
LENGTHENING_STEP     5
MIN_SURFAREA         0
MAX_TRIALS           8
HEAD_TOLERANCE       0.005000
SYS_FLOW_TOL         5
LAT_FLOW_TOL         5
MINIMUM_STEP         0
THREADS              1

[EVAPORATION]
;;Data Source    Parameters
;;-------------- ----------------
CONSTANT         0.0
DRY_ONLY         NO

[RAINGAGES]
;;Name           Format    Interval SCF      Source    
;;-------------- --------- ------ ------ ----------
; New Raingage
RAINGAGE-1       INTENSITY 0.083333 1.000000 TIMESERIES RAINFALL        

[SUBCATCHMENTS]
;;Name           Rain Gage        Outlet           Area     %Imperv  Width    %Slope   CurbLen  SnowPack        
;;-------------- ---------------- ---------------- -------- -------- -------- -------- -------- ----------------
0                RAINGAGE-1       WWMG123074       30410001.000000 80.000000 100.000000 0.001000 50.000000                 

[SUBAREAS]
;;Subcatchment   N-Imperv   N-Perv     S-Imperv   S-Perv     PctZero    RouteTo    PctRouted 
;;-------------- ---------- ---------- ---------- ---------- ---------- ---------- ----------
0                0.013000   0.100000   0.050000   0.050000   25.000000  OUTLET    

[INFILTRATION]
;;Subcatchment   MaxRate    MinRate    Decay      DryTime    MaxInfil  
;;-------------- ---------- ---------- ---------- ---------- ----------
0                3.5        0.5        0.25       0          0         

[JUNCTIONS]
;;Name           Elevation  MaxDepth   InitDepth  SurDepth   Aponded   
;;-------------- ---------- ---------- ---------- ---------- ----------
; HWY240_DIV
J-100            163.800000 8.600000   0.000000   0.000000   0.000000  
; New Junction
J-110            159.723042 10.326958  0.000000   0.000000   0.000000  
; Andrew PS Junction
J-120_ANDR       137.600000 13.000000  0.000000   50.000000  0.000000  
; Charles PS Junction
J-130_CHAR       140.350000 13.750000  0.000000   50.000000  0.000000  
; Chehalem PS Junction
J-140_CHEHAL     177.100000 19.000000  0.000000   50.000000  0.000000  
; Creekside PS Junction
J-150_CREEKSD    160.600000 14.000000  0.000000   50.000000  0.000000  
; Dayton PS Junction
J-160_DAY        101.900000 11.600000  0.000000   50.000000  0.000000  
; Fernwood PS Junction_1
J-170_FERN1      113.600000 27.000000  0.000000   50.000000  0.000000  
; HWY240 PS Junction_1
J-190_HWY240_1   143.000000 22.000000  0.000000   50.000000  0.000000  
; Sheridan PS Junction_1
J-210_SHER1      132.600000 24.000000  0.000000   50.000000  0.000000  
; Chehalem PS Base Flows
J-230_CHEHAL_BASEFLOW 186.090000 10.010000  0.000000   0.000000   0.000000  
; Creekside PS Base Flows
J-240_CREEK_BASEFLOW 165.970000 8.630000   0.000000   0.000000   0.000000  
; Sheridan PS Base Flows
J-250_SHER_BASEFLOW 138.760000 17.840000  0.000000   0.000000   0.000000  
; Charles PS Base Flows
J-260_CHAR_BASEFLOW 146.920000 7.180000   0.000000   0.000000   0.000000  
; Andrew PS Base Flows
J-270_ANDR_BASEFLOW 143.660000 6.940000   0.000000   0.000000   0.000000  
WWMF109000       167.200000 8.410000   0.000000   0.000000   0.000000  
WWMF109001       167.760000 7.940000   0.000000   0.000000   0.000000  
WWMF109002       168.390000 6.870000   0.000000   0.000000   0.000000  
WWMF109003       169.020000 9.160000   0.000000   0.000000   0.000000  
WWMF109004       171.530000 12.340000  0.000000   0.000000   0.000000  
WWMF109005       173.610000 13.480000  0.000000   0.000000   0.000000  
WWMF109006       175.990000 12.460000  0.000000   0.000000   0.000000  
WWMF109040       174.770000 3.100000   0.000000   0.000000   0.000000  
WWMF109150       168.210000 6.670000   0.000000   0.000000   0.000000  
WWMF109153       166.550000 6.180000   0.000000   0.000000   0.000000  
WWMF117018       157.500000 10.570000  0.000000   0.000000   0.000000  
WWMF117019       158.590000 12.390000  0.000000   0.000000   0.000000  
WWMF117020       159.730000 7.940000   0.000000   0.000000   0.000000  
WWMF117021       160.660000 5.990000   0.000000   0.000000   0.000000  
WWMF117022       161.980000 7.130000   0.000000   0.000000   0.000000  
WWMF117023       163.210000 10.110000  0.000000   0.000000   0.000000  
WWMF117024       163.580000 10.060000  0.000000   0.000000   0.000000  
WWMF117025       164.410000 6.160000   0.000000   0.000000   0.000000  
WWMF117026       164.770000 8.980000   0.000000   0.000000   0.000000  
WWMF117027       164.930000 11.900000  0.000000   0.000000   0.000000  
WWMF117028       165.500000 8.470000   0.000000   0.000000   0.000000  
WWMF118001       165.430000 8.650000   0.000000   0.000000   0.000000  
WWMF118002       159.750000 12.130000  0.000000   0.000000   0.000000  
WWMF118003       170.440000 11.800000  0.000000   0.000000   0.000000  
WWMF118023       169.650000 9.890000   0.000000   0.000000   0.000000  
WWMF118024       167.530000 7.000000   0.000000   0.000000   0.000000  
WWMF118025       166.250000 3.890000   0.000000   0.000000   0.000000  
WWMF118026       165.750000 4.210000   0.000000   0.000000   0.000000  
WWMF118048       154.990000 10.200000  0.000000   0.000000   0.000000  
WWMF118049       162.170000 10.370000  0.000000   0.000000   0.000000  
WWMF118050       162.980000 10.040000  0.000000   0.000000   0.000000  
WWMF127007       148.570000 14.110000  0.000000   0.000000   0.000000  
WWMF127008       149.070000 12.440000  0.000000   0.000000   0.000000  
WWMF127009       145.280000 9.210000   0.000000   0.000000   0.000000  
WWMF127010       150.140000 8.250000   0.000000   0.000000   0.000000  
WWMF127011       150.900000 9.800000   0.000000   0.000000   0.000000  
WWMF127012       151.900000 11.110000  0.000000   0.000000   0.000000  
WWMF127013       152.220000 11.160000  0.000000   0.000000   0.000000  
WWMF127014       152.960000 18.450000  0.000000   0.000000   0.000000  
WWMF127015       153.600000 18.120000  0.000000   0.000000   0.000000  
WWMF127016       154.810000 16.130000  0.000000   0.000000   0.000000  
WWMF127017       156.170000 9.890000   0.000000   0.000000   0.000000  
WWMF127044       157.160000 8.160000   0.000000   0.000000   0.000000  
WWMF127115       167.500000 5.040000   0.000000   0.000000   0.000000  
WWMF127116       168.230000 5.660000   0.000000   0.000000   0.000000  
WWMF127117       168.630000 5.490000   0.000000   0.000000   0.000000  
WWMF127118       168.960000 4.120000   0.000000   0.000000   0.000000  
WWMF127119       170.400000 6.110000   0.000000   0.000000   0.000000  
WWMF127203       169.660000 8.130000   0.000000   0.000000   0.000000  
WWMF127220       170.340000 5.920000   0.000000   0.000000   0.000000  
WWMF137001       125.960000 9.440000   0.000000   0.000000   0.000000  
WWMF137002       132.890000 7.940000   0.000000   0.000000   0.000000  
WWMF137003       144.940000 12.800000  0.000000   0.000000   0.000000  
WWMF137004       147.000000 11.000000  0.000000   0.000000   0.000000  
WWMF137005       147.320000 13.400000  0.000000   0.000000   0.000000  
WWMF137006       148.060000 14.000000  0.000000   0.000000   0.000000  
WWMF137072       109.760000 4.770000   0.000000   0.000000   0.000000  
WWMF79028        216.280000 10.990000  0.000000   0.000000   0.000000  
WWMF79029        220.290000 5.500000   0.000000   0.000000   0.000000  
WWMF79030        217.200000 7.580000   0.000000   0.000000   0.000000  
WWMF79031        218.970000 5.580000   0.000000   0.000000   0.000000  
WWMF89019        199.160000 13.940000  0.000000   0.000000   0.000000  
WWMF89020        200.180000 11.090000  0.000000   0.000000   0.000000  
WWMF89021        201.220000 10.360000  0.000000   0.000000   0.000000  
WWMF89022        201.600000 13.890000  0.000000   0.000000   0.000000  
WWMF89023        205.295211 8.994789   0.000000   0.000000   0.000000  
WWMF89024        208.190000 9.060000   0.000000   0.000000   0.000000  
WWMF89025        212.450000 10.520000  0.000000   0.000000   0.000000  
WWMF89026        213.740000 11.230000  0.000000   0.000000   0.000000  
WWMF89027        217.550000 10.870000  0.000000   0.000000   0.000000  
WWMF89160        204.270000 10.020000  0.000000   0.000000   0.000000  
WWMF99007        177.870000 12.850000  0.000000   0.000000   0.000000  
WWMF99008        178.310000 12.160000  0.000000   0.000000   0.000000  
WWMF99009        179.260000 11.500000  0.000000   0.000000   0.000000  
WWMF99011        180.340000 9.520000   0.000000   0.000000   0.000000  
WWMF99012        180.580000 9.050000   0.000000   0.000000   0.000000  
WWMF99013        186.080000 7.070000   0.000000   0.000000   0.000000  
WWMF99014        188.320000 8.150000   0.000000   0.000000   0.000000  
WWMF99015        189.240000 8.970000   0.000000   0.000000   0.000000  
WWMF99016        190.510000 10.810000  0.000000   0.000000   0.000000  
WWMF99017        191.250000 9.340000   0.000000   0.000000   0.000000  
WWMF99018        192.940000 10.300000  0.000000   0.000000   0.000000  
WWMF99152        195.570000 8.390000   0.000000   0.000000   0.000000  
WWMG108005       177.080000 6.290000   0.000000   0.000000   0.000000  
WWMG108006       178.430000 11.510000  0.000000   0.000000   0.000000  
WWMG108007       178.600000 14.360000  0.000000   0.000000   0.000000  
WWMG108008       179.810000 13.060000  0.000000   0.000000   0.000000  
WWMG108009       180.800000 10.500000  0.000000   0.000000   0.000000  
WWMG108010       181.760000 9.490000   0.000000   0.000000   0.000000  
WWMG108011       181.530000 10.060000  0.000000   0.000000   0.000000  
WWMG108080       179.410000 12.830000  0.000000   0.000000   0.000000  
WWMG109046       179.070000 12.460000  0.000000   0.000000   0.000000  
WWMG109047       180.340000 11.390000  0.000000   0.000000   0.000000  
WWMG109048       181.120000 11.110000  0.000000   0.000000   0.000000  
WWMG109049       182.020000 13.650000  0.000000   0.000000   0.000000  
WWMG109050       186.000000 16.560000  0.000000   0.000000   0.000000  
WWMG109051       188.970000 16.940000  0.000000   0.000000   0.000000  
WWMG114000       135.510000 5.710000   0.000000   0.000000   0.000000  
WWMG114001       194.410000 7.340000   0.000000   0.000000   0.000000  
WWMG114002       138.880000 6.380000   0.000000   0.000000   0.000000  
WWMG116235       172.550000 14.190000  0.000000   0.000000   0.000000  
WWMG116236       173.270000 16.010000  0.000000   0.000000   0.000000  
WWMG116237       173.990000 16.210000  0.000000   0.000000   0.000000  
WWMG116238       174.790000 17.620000  0.000000   0.000000   0.000000  
WWMG116239       175.110000 17.760000  0.000000   0.000000   0.000000  
WWMG116240       176.260000 18.960000  0.000000   0.000000   0.000000  
WWMG116241       176.560000 18.070000  0.000000   0.000000   0.000000  
WWMG117195       176.860000 16.900000  0.000000   0.000000   0.000000  
WWMG118004       174.350000 10.500000  0.000000   0.000000   0.000000  
WWMG118086       178.010000 15.370000  0.000000   0.000000   0.000000  
WWMG118104       184.640000 9.420000   0.000000   0.000000   0.000000  
WWMG123072       121.010000 12.910000  0.000000   0.000000   0.000000  
WWMG123073       122.280000 11.380000  0.000000   0.000000   0.000000  
WWMG123074       122.740000 11.450000  0.000000   0.000000   0.000000  
WWMG123075       125.120000 32.500000  0.000000   0.000000   0.000000  
WWMG123076       125.360000 11.560000  0.000000   0.000000   0.000000  
WWMG123077       125.890000 11.590000  0.000000   0.000000   0.000000  
WWMG123078       132.710000 7.510000   0.000000   0.000000   0.000000  
WWMG123079       135.010000 9.460000   0.000000   0.000000   0.000000  
WWMG126098       163.540000 9.360000   0.000000   0.000000   0.000000  
WWMG126102       164.400000 6.850000   0.000000   0.000000   0.000000  
WWMG126147       174.040000 8.210000   0.000000   0.000000   0.000000  
WWMG126164       180.000000 3.790000   0.000000   0.000000   0.000000  
WWMG126200       164.800000 5.850000   0.000000   0.000000   0.000000  
WWMG126236       158.580000 12.750000  0.000000   0.000000   0.000000  
WWMG126237       165.770000 8.050000   0.000000   0.000000   0.000000  
WWMG126238       162.280000 9.950000   0.000000   0.000000   0.000000  
WWMG126239       163.940000 10.650000  0.000000   0.000000   0.000000  
WWMG126240       165.660000 11.360000  0.000000   0.000000   0.000000  
WWMG126241       168.220000 7.430000   0.000000   0.000000   0.000000  
WWMG126242       171.640000 12.690000  0.000000   0.000000   0.000000  
WWMG126243       171.830000 11.960000  0.000000   0.000000   0.000000  
WWMG127109       163.830000 5.980000   0.000000   0.000000   0.000000  
WWMG127110       164.260000 4.960000   0.000000   0.000000   0.000000  
WWMG127114       165.690000 5.710000   0.000000   0.000000   0.000000  
WWMG127133       168.630000 5.650000   0.000000   0.000000   0.000000  
WWMG127188       163.750000 8.810000   0.000000   0.000000   0.000000  
WWMG127195       166.360000 9.450000   0.000000   0.000000   0.000000  
WWMG136015       153.680000 15.090000  0.000000   0.000000   0.000000  
WWMG136016       155.050000 14.010000  0.000000   0.000000   0.000000  
WWMG136017       155.820000 13.130000  0.000000   0.000000   0.000000  
WWMG136018       156.390000 12.650000  0.000000   0.000000   0.000000  
WWMG136019       156.850000 13.100000  0.000000   0.000000   0.000000  
WWMG136020       154.190000 14.930000  0.000000   0.000000   0.000000  
WWMG136021       158.680000 11.370000  0.000000   0.000000   0.000000  
WWMG136035       157.450000 8.590000   0.000000   0.000000   0.000000  
WWMG136036       158.360000 9.210000   0.000000   0.000000   0.000000  
WWMG136037       159.280000 10.650000  0.000000   0.000000   0.000000  
WWMG136038       160.060000 8.340000   0.000000   0.000000   0.000000  
WWMG136039       161.220000 5.090000   0.000000   0.000000   0.000000  
WWMG136050       155.690000 14.130000  0.000000   0.000000   0.000000  
WWMG136051       156.250000 12.320000  0.000000   0.000000   0.000000  
WWMG136053       157.740000 11.540000  0.000000   0.000000   0.000000  
WWMG136054       158.950000 10.150000  0.000000   0.000000   0.000000  
WWMG136064       159.970000 9.640000   0.000000   0.000000   0.000000  
WWMG136065       160.390000 11.680000  0.000000   0.000000   0.000000  
WWMG136066       160.790000 12.960000  0.000000   0.000000   0.000000  
WWMG136067       161.450000 13.510000  0.000000   0.000000   0.000000  
WWMG136068       162.100000 12.090000  0.000000   0.000000   0.000000  
WWMG136069       161.960000 12.190000  0.000000   0.000000   0.000000  
WWMG136070       162.600000 9.500000   0.000000   0.000000   0.000000  
WWMG136074       164.310000 4.890000   0.000000   0.000000   0.000000  
WWMG136095       162.530000 5.950000   0.000000   0.000000   0.000000  
WWMG136097       160.500000 8.820000   0.000000   0.000000   0.000000  
WWMG136100       163.120000 11.080000  0.000000   0.000000   0.000000  
WWMG136254       159.750000 10.260000  0.000000   0.000000   0.000000  
WWMG136260       156.930000 13.110000  0.000000   0.000000   0.000000  
WWMG137106       161.890000 6.600000   0.000000   0.000000   0.000000  
WWMG137107       162.740000 6.790000   0.000000   0.000000   0.000000  
WWMG137183       163.080000 6.160000   0.000000   0.000000   0.000000  
WWMG137193       157.070000 11.310000  0.000000   0.000000   0.000000  
WWMG137194       158.030000 8.950000   0.000000   0.000000   0.000000  
WWMG137195       158.330000 9.960000   0.000000   0.000000   0.000000  
WWMG146012       152.080000 17.720000  0.000000   0.000000   0.000000  
WWMG146013       152.540000 17.340000  0.000000   0.000000   0.000000  
WWMG146014       151.630000 17.200000  0.000000   0.000000   0.000000  
WWMG146025       155.040000 15.630000  0.000000   0.000000   0.000000  
WWMG146075       152.680000 16.310000  0.000000   0.000000   0.000000  
WWMG146076       151.130000 17.840000  0.000000   0.000000   0.000000  
WWMG146077       150.360000 19.560000  0.000000   0.000000   0.000000  
WWMG146078       154.740000 15.280000  0.000000   0.000000   0.000000  
WWMG146079       149.700000 21.320000  0.000000   0.000000   0.000000  
WWMG79032        218.210000 7.760000   0.000000   0.000000   0.000000  
WWMG79033        222.830000 8.560000   0.000000   0.000000   0.000000  
WWMG79034        224.690000 7.960000   0.000000   0.000000   0.000000  
WWMG79195        240.180000 6.480000   0.000000   0.000000   0.000000  
WWMG79196        240.200000 7.900000   0.000000   0.000000   0.000000  
WWMG79244        241.370000 8.580000   0.000000   0.000000   0.000000  
WWMG79245        242.050000 8.520000   0.000000   0.000000   0.000000  
WWMG79246        242.450000 8.660000   0.000000   0.000000   0.000000  
WWMG89076        218.830000 8.460000   0.000000   0.000000   0.000000  
WWMG89185        220.040000 7.950000   0.000000   0.000000   0.000000  
WWMG89186        220.500000 9.120000   0.000000   0.000000   0.000000  
WWMG89187        221.070000 9.160000   0.000000   0.000000   0.000000  
WWMG89189        222.200000 9.330000   0.000000   0.000000   0.000000  
WWMG89192        226.020000 9.560000   0.000000   0.000000   0.000000  
WWMG89193        228.020000 9.690000   0.000000   0.000000   0.000000  
WWMG89194        234.520000 7.970000   0.000000   0.000000   0.000000  
WWMG89250        220.400000 6.910000   0.000000   0.000000   0.000000  
WWMG89258        214.580000 13.010000  0.000000   0.000000   0.000000  
WWMG89259        216.370000 10.900000  0.000000   0.000000   0.000000  
WWMG89260        217.010000 9.980000   0.000000   0.000000   0.000000  
WWMG89261        217.970000 10.230000  0.000000   0.000000   0.000000  
WWMG99099        191.770000 15.370000  0.000000   0.000000   0.000000  
WWMG99100        197.150000 11.500000  0.000000   0.000000   0.000000  
WWMG99101        204.690000 8.500000   0.000000   0.000000   0.000000  
WWMG99102        208.500000 13.700000  0.000000   0.000000   0.000000  
WWMG99104        210.390000 13.130000  0.000000   0.000000   0.000000  
WWMG99105        212.560000 12.880000  0.000000   0.000000   0.000000  
WWMH104008       146.860000 14.290000  0.000000   0.000000   0.000000  
WWMH104009       148.290000 8.420000   0.000000   0.000000   0.000000  
WWMH104010       150.280000 9.370000   0.000000   0.000000   0.000000  
WWMH104011       150.770000 9.320000   0.000000   0.000000   0.000000  
WWMH104012       151.900000 9.370000   0.000000   0.000000   0.000000  
WWMH104040       209.840000 9.890000   0.000000   0.000000   0.000000  
WWMH104041       210.120000 8.320000   0.000000   0.000000   0.000000  
WWMH104042       211.370000 5.520000   0.000000   0.000000   0.000000  
WWMH104043       213.210000 8.830000   0.000000   0.000000   0.000000  
WWMH104044       214.860000 9.050000   0.000000   0.000000   0.000000  
WWMH105001       152.880000 13.310000  0.000000   0.000000   0.000000  
WWMH105002       155.420000 10.000000  0.000000   0.000000   0.000000  
WWMH105003       157.690000 9.050000   0.000000   0.000000   0.000000  
WWMH105004       160.000000 9.000000   0.000000   0.000000   0.000000  
WWMH105005       162.030000 8.700000   0.000000   0.000000   0.000000  
WWMH105017       163.310000 6.850000   0.000000   0.000000   0.000000  
WWMH114003       140.020000 7.250000   0.000000   0.000000   0.000000  
WWMH114004       138.020000 6.920000   0.000000   0.000000   0.000000  
WWMH114005       141.580000 11.850000  0.000000   0.000000   0.000000  
WWMH114006       143.280000 13.390000  0.000000   0.000000   0.000000  
WWMH114007       145.320000 16.280000  0.000000   0.000000   0.000000  
WWMH114026       145.810000 7.090000   0.000000   0.000000   0.000000  
WWMH114027       153.653789 3.996211   0.000000   0.000000   0.000000  
WWMH114028       174.850000 9.420000   0.000000   0.000000   0.000000  
WWMH114029       176.840000 10.160000  0.000000   0.000000   0.000000  
WWMH114030       177.830000 10.410000  0.000000   0.000000   0.000000  
WWMH114031       180.150000 9.850000   0.000000   0.000000   0.000000  
WWMH114033       190.840000 9.980000   0.000000   0.000000   0.000000  
WWMH114035       192.530000 9.020000   0.000000   0.000000   0.000000  
WWMH114036       193.100000 9.360000   0.000000   0.000000   0.000000  
WWMH114037       194.330000 8.200000   0.000000   0.000000   0.000000  
WWMH114038       201.800000 10.020000  0.000000   0.000000   0.000000  
WWMH114039       208.100000 10.340000  0.000000   0.000000   0.000000  
WWMH114127       142.300517 10.599483  0.000000   0.000000   0.000000  
WWMH114140       139.210000 9.810000   0.000000   0.000000   0.000000  
WWMH123003       157.320000 10.510000  0.000000   0.000000   0.000000  
WWMH123004       160.050000 9.750000   0.000000   0.000000   0.000000  
WWMH123005       163.030000 11.710000  0.000000   0.000000   0.000000  
WWMH123006       164.580000 12.760000  0.000000   0.000000   0.000000  
WWMH123007       167.070000 14.010000  0.000000   0.000000   0.000000  
WWMH123068       118.120000 10.950000  0.000000   0.000000   0.000000  
WWMH123069       118.700000 13.840000  0.000000   0.000000   0.000000  
WWMH123070       119.140000 13.680000  0.000000   0.000000   0.000000  
WWMH123071       119.890000 10.650000  0.000000   0.000000   0.000000  
WWMH126133       161.520000 8.300000   0.000000   0.000000   0.000000  
WWMH131073       102.950000 7.100000   0.000000   0.000000   0.000000  
WWMH131074       103.870000 8.040000   0.000000   0.000000   0.000000  
WWMH131075       106.080000 7.810000   0.000000   0.000000   0.000000  
WWMH131080       107.400000 11.520000  0.000000   0.000000   0.000000  
WWMH131081       108.260000 9.650000   0.000000   0.000000   0.000000  
WWMH131082       110.060000 11.350000  0.000000   0.000000   0.000000  
WWMH131083       111.720000 13.050000  0.000000   0.000000   0.000000  
WWMH133000       115.160000 11.180000  0.000000   0.000000   0.000000  
WWMH133001       116.990000 7.000000   0.000000   0.000000   0.000000  
WWMH133002       117.760000 6.610000   0.000000   0.000000   0.000000  
WWMH133066       116.270000 8.690000   0.000000   0.000000   0.000000  
WWMH133067       117.040000 11.750000  0.000000   0.000000   0.000000  
WWMH133096       114.540000 11.450000  0.000000   0.000000   0.000000  
WWMH136135       158.830000 10.060000  0.000000   0.000000   0.000000  
WWMH136204       159.790000 9.710000   0.000000   0.000000   0.000000  
WWMH136247       155.570000 10.030000  0.000000   0.000000   0.000000  
WWMH136248       156.420000 12.200000  0.000000   0.000000   0.000000  
WWMH136249       157.010000 8.580000   0.000000   0.000000   0.000000  
WWMH136250       157.810000 5.190000   0.000000   0.000000   0.000000  
WWMH136253       159.450000 10.010000  0.000000   0.000000   0.000000  
WWMH136262       161.480453 8.019547   0.000000   0.000000   0.000000  
WWMH141000       91.240000  24.300000  0.000000   0.000000   0.000000  
WWMH141001       105.420000 6.780000   0.000000   0.000000   0.000000  
WWMH141002       96.140000  15.710000  0.000000   0.000000   0.000000  
WWMH141003       96.530000  15.210000  0.000000   0.000000   0.000000  
WWMH141004       97.058761  14.371239  0.000000   0.000000   0.000000  
WWMH141005       97.720000  13.710000  0.000000   0.000000   0.000000  
WWMH141006       119.820000 10.200000  0.000000   0.000000   0.000000  
WWMH141007       149.190000 4.820000   0.000000   0.000000   0.000000  
WWMH141071       101.640000 9.100000   0.000000   0.000000   0.000000  
WWMH141072       102.730000 7.210000   0.000000   0.000000   0.000000  
WWMH146000       92.540000  24.720000  0.000000   0.000000   0.000000  
WWMH146001       142.010000 12.110000  0.000000   0.000000   0.000000  
WWMH146002       143.450000 20.310000  0.000000   0.000000   0.000000  
WWMH146003       144.270000 19.450000  0.000000   0.000000   0.000000  
WWMH146004       145.380000 20.720000  0.000000   0.000000   0.000000  
WWMH146005       145.890000 23.750000  0.000000   0.000000   0.000000  
WWMH146006       146.570000 22.100000  0.000000   0.000000   0.000000  
WWMH146007       147.710000 24.420000  0.000000   0.000000   0.000000  
WWMH146008       148.650000 23.670000  0.000000   0.000000   0.000000  
WWMH146246       153.930000 14.970000  0.000000   0.000000   0.000000  
WWMH146247       148.890000 23.100000  0.000000   0.000000   0.000000  
WWMH95018        165.100000 7.900000   0.000000   0.000000   0.000000  
WWMH95019        166.453921 6.546079   0.000000   0.000000   0.000000  
WWMH95020        169.940000 6.730000   0.000000   0.000000   0.000000  
WWMH95021        187.210000 18.440000  0.000000   0.000000   0.000000  
WWMH95022        190.070000 14.690000  0.000000   0.000000   0.000000  
WWMH95023        191.850000 15.350000  0.000000   0.000000   0.000000  
WWMH95024        192.850000 17.550000  0.000000   0.000000   0.000000  
WWMI102001       197.520000 11.080000  0.000000   0.000000   0.000000  
WWMI102002       198.620000 19.510000  0.000000   0.000000   0.000000  
WWMI102003       199.900000 15.940000  0.000000   0.000000   0.000000  
WWMI102066       203.230000 7.540000   0.000000   0.000000   0.000000  
WWMI102067       208.130000 6.380000   0.000000   0.000000   0.000000  
WWMI102068       212.880000 6.320000   0.000000   0.000000   0.000000  
WWMI102069       213.720000 7.770000   0.000000   0.000000   0.000000  
WWMI102070       214.210000 5.590000   0.000000   0.000000   0.000000  
WWMI102071       214.400000 5.630000   0.000000   0.000000   0.000000  
WWMI102072       216.640000 6.710000   0.000000   0.000000   0.000000  
WWMI102073       218.210000 7.450000   0.000000   0.000000   0.000000  
WWMI102131       219.280000 6.590000   0.000000   0.000000   0.000000  
WWMI102132       220.880000 6.870000   0.000000   0.000000   0.000000  
WWMI104050       222.320000 10.030000  0.000000   0.000000   0.000000  
WWMI104051       222.060000 7.630000   0.000000   0.000000   0.000000  
WWMI111032       179.270000 14.030000  0.000000   0.000000   0.000000  
WWMI111035       181.390000 6.710000   0.000000   0.000000   0.000000  
WWMI111036       182.780000 20.790000  0.000000   0.000000   0.000000  
WWMI111037       189.430000 15.600000  0.000000   0.000000   0.000000  
WWMI111040       180.540000 12.460000  0.000000   0.000000   0.000000  
WWMI111053       193.350000 10.490000  0.000000   0.000000   0.000000  
WWMI111099       195.950000 6.840000   0.000000   0.000000   0.000000  
WWMI112000       196.520000 10.640000  0.000000   0.000000   0.000000  
WWMI121026       171.050000 6.750000   0.000000   0.000000   0.000000  
WWMI121027       172.170000 7.700000   0.000000   0.000000   0.000000  
WWMI121028       172.660000 6.940000   0.000000   0.000000   0.000000  
WWMI121029       174.790000 7.410000   0.000000   0.000000   0.000000  
WWMI121030       176.890000 9.010000   0.000000   0.000000   0.000000  
WWMI121031       178.010000 12.590000  0.000000   0.000000   0.000000  
WWMI121100       177.056233 2.813767   0.000000   0.000000   0.000000  
WWMI121103       172.354896 13.545104  0.000000   0.000000   0.000000  
WWMI131009       152.250000 13.300000  0.000000   0.000000   0.000000  
WWMI131010       153.520000 13.590000  0.000000   0.000000   0.000000  
WWMI131011       154.680000 10.910000  0.000000   0.000000   0.000000  
WWMI131012       155.050000 9.160000   0.000000   0.000000   0.000000  
WWMI131013       156.320000 7.080000   0.000000   0.000000   0.000000  
WWMI131014       156.450000 10.720000  0.000000   0.000000   0.000000  
WWMI131017       157.550000 16.380000  0.000000   0.000000   0.000000  
WWMI131018       158.730000 15.740000  0.000000   0.000000   0.000000  
WWMI131019       160.630000 12.410000  0.000000   0.000000   0.000000  
WWMI131020       161.930000 9.810000   0.000000   0.000000   0.000000  
WWMI131021       163.740000 10.310000  0.000000   0.000000   0.000000  
WWMI131022       165.430000 11.560000  0.000000   0.000000   0.000000  
WWMI131023       166.710000 10.740000  0.000000   0.000000   0.000000  
WWMI131024       168.130000 9.910000   0.000000   0.000000   0.000000  
WWMI131025       169.550000 8.240000   0.000000   0.000000   0.000000  
WWMI131111       160.900000 11.620000  0.000000   0.000000   0.000000  
WWMI141008       150.540000 11.580000  0.000000   0.000000   0.000000  
WWMI81           268.140000 11.790000  0.000000   0.000000   0.000000  
WWMI92143        257.490000 8.360000   0.000000   0.000000   0.000000  
WWMI92144        256.470000 7.960000   0.000000   0.000000   0.000000  
WWMI92146        254.540000 9.370000   0.000000   0.000000   0.000000  
WWMI92147        243.470000 18.650000  0.000000   0.000000   0.000000  
WWMI92148        241.520000 10.190000  0.000000   0.000000   0.000000  
WWMI92149        236.970000 8.200000   0.000000   0.000000   0.000000  
WWMI92150        229.750000 11.750000  0.000000   0.000000   0.000000  
WWMI92151        225.750000 14.000000  0.000000   0.000000   0.000000  
WWMI92152        223.960000 10.750000  0.000000   0.000000   0.000000  
WWMI92156        244.650000 18.900000  0.000000   0.000000   0.000000  
WWMI92157        245.570000 15.380000  0.000000   0.000000   0.000000  
WWMI92158        247.110000 8.100000   0.000000   0.000000   0.000000  