[TITLE]
;;Project Title/Notes

[OPTIONS]
;;Option             Value
FLOW_UNITS           GPM
INFILTRATION         HORTON
FLOW_ROUTING         DYNWAVE
LINK_OFFSETS         DEPTH
MIN_SLOPE            0
ALLOW_PONDING        NO
SKIP_STEADY_STATE    NO

START_DATE           01/01/2002
START_TIME           00:00:00
REPORT_START_DATE    01/01/2002
REPORT_START_TIME    00:00:00
END_DATE             01/01/2002
END_TIME             12:00:00
SWEEP_START          01/01
SWEEP_END            12/31
DRY_DAYS             5.000000
REPORT_STEP          00:05:00
WET_STEP             01:00:00
DRY_STEP             23:00:00
ROUTING_STEP         0:05:00 

INERTIAL_DAMPING     NONE
NORMAL_FLOW_LIMITED  BOTH
FORCE_MAIN_EQUATION  H-W
VARIABLE_STEP        0.75
LENGTHENING_STEP     0
MIN_SURFAREA         12.557
MAX_TRIALS           8
HEAD_TOLERANCE       0.005
SYS_FLOW_TOL         5
LAT_FLOW_TOL         5
MINIMUM_STEP         0.5
THREADS              1

[EVAPORATION]
;;Data Source    Parameters
;;-------------- ----------------
CONSTANT         0.0
DRY_ONLY         NO

[JUNCTIONS]
;;Name           Elevation  MaxDepth   InitDepth  SurDepth   Aponded   
;;-------------- ---------- ---------- ---------- ---------- ----------
; 00-0000
00-0000          20.000000  7.000000   0.000000   0.000000   0.000000  
; 01-0101
01-0101          22.500000  14.500000  0.000000   0.000000   0.000000  
; 01-0102
01-0102          25.620000  11.880000  0.000000   0.000000   0.000000  
; 01-0103
01-0103          34.000000  12.000000  0.000000   0.000000   0.000000  
; 01-0104
01-0104          40.700000  11.800000  0.000000   0.000000   0.000000  
; 01-0105
01-0105          48.000000  13.000000  0.000000   0.000000   0.000000  
; 01-0106
01-0106          41.000000  12.500000  0.000000   0.000000   0.000000  
; 01-0110
01-0110          24.260000  8.240000   0.000000   0.000000   0.000000  
; 01-0111
01-0111          25.960000  18.040000  0.000000   0.000000   0.000000  
; 01-0112
01-0112          28.000000  4.500000   0.000000   0.000000   0.000000  
; AQUIA WWTF
012              15.500000  3.500000   0.000000   0.000000   0.000000  
; 02-0101
02-0101          9.200000   8.600000   0.000000   0.000000   0.000000  
; 02-0102
02-0102          23.700000  9.650000   0.000000   0.000000   0.000000  
; 02-0103
02-0103          42.200000  6.740000   0.000000   0.000000   0.000000  
; 02-0104
02-0104          43.200000  8.520000   0.000000   0.000000   0.000000  
; 02-0105
02-0105          54.700000  6.430000   0.000000   0.000000   0.000000  
; 02-0106
02-0106          58.500000  17.010000  0.000000   0.000000   0.000000  
; 02-0107
02-0107          83.000000  9.640000   0.000000   0.000000   0.000000  
; 02-0108
02-0108          89.700000  5.750000   0.000000   0.000000   0.000000  
; 02-0109
02-0109          111.200000 7.400000   0.000000   0.000000   0.000000  
; 02-0110
02-0110          116.000000 7.460000   0.000000   0.000000   0.000000  
; 02-0111
02-0111          91.700000  14.370000  0.000000   0.000000   0.000000  
; 02-0112
02-0112          118.200000 11.720000  0.000000   0.000000   0.000000  
; 02-0113
02-0113          132.000000 9.840000   0.000000   0.000000   0.000000  
; 02-0114
02-0114          46.500000  9.230000   0.000000   0.000000   0.000000  
; 02-0115
02-0115          63.200000  5.510000   0.000000   0.000000   0.000000  
; 02-0116
02-0116          75.000000  6.960000   0.000000   0.000000   0.000000  
; 02-0117
02-0117          92.500000  11.480000  0.000000   0.000000   0.000000  
; 02-0118
02-0118          120.200000 8.690000   0.000000   0.000000   0.000000  
; 02-0119
02-0119          130.700000 11.060000  0.000000   0.000000   0.000000  
; 02-0120
02-0120          134.000000 6.000000   0.000000   0.000000   0.000000  
; 02-0121
02-0121          111.000000 6.650000   0.000000   0.000000   0.000000  
; 02-0130
02-0130          26.500000  10.880000  0.000000   0.000000   0.000000  
; 02-0131
02-0131          10.000000  12.460000  0.000000   0.000000   0.000000  
; 02-0132
02-0132          63.000000  7.320000   0.000000   0.000000   0.000000  
; 02-0133
02-0133          10.600000  8.060000   0.000000   0.000000   0.000000  
; 02-0134
02-0134          37.500000  16.040000  0.000000   0.000000   0.000000  
; 02-0135
02-0135          38.200000  17.920000  0.000000   0.000000   0.000000  
; 02-0136
02-0136          40.000000  6.390000   0.000000   0.000000   0.000000  
; 02-0137
02-0137          48.700000  9.180000   0.000000   0.000000   0.000000  
; 02-0138
02-0138          67.000000  6.500000   0.000000   0.000000   0.000000  
; 03-0101
03-0101          58.500000  6.720000   0.000000   0.000000   0.000000  
; 03-0102
03-0102          66.700000  6.650000   0.000000   0.000000   0.000000  
; 03-0103
03-0103          68.700000  11.260000  0.000000   0.000000   0.000000  
; 03-0104
03-0104          99.700000  11.800000  0.000000   0.000000   0.000000  
; 03-0105
03-0105          127.000000 13.070000  0.000000   0.000000   0.000000  
; 03-0106
03-0106          0.000000   101.170000 0.000000   0.000000   0.000000  
; 03-0107
03-0107          91.200000  11.240000  0.000000   0.000000   0.000000  
; 03-0108
03-0108          98.200000  13.500000  0.000000   0.000000   0.000000  
; 03-0109
03-0109          0.000000   130.830000 0.000000   0.000000   0.000000  
; 03-0150
03-0150          48.250000  3.750000   0.000000   0.000000   0.000000  
; 03-0150A
03-0150A         48.700000  9.300000   0.000000   0.000000   0.000000  
; 03-0151
03-0151          57.200000  5.800000   0.000000   0.000000   0.000000  
; 03-0152
03-0152          69.200000  7.800000   0.000000   0.000000   0.000000  
; 03-0153
03-0153          77.700000  6.800000   0.000000   0.000000   0.000000  
; 03-0154
03-0154          82.700000  9.300000   0.000000   0.000000   0.000000  
; 03-0155
03-0155          88.700000  7.300000   0.000000   0.000000   0.000000  
; 03-0156
03-0156          103.200000 6.800000   0.000000   0.000000   0.000000  
; 03-0157
03-0157          117.500000 10.040000  0.000000   0.000000   0.000000  
; 03-0158
03-0158          128.700000 10.380000  0.000000   0.000000   0.000000  
; 03-0159
03-0159          130.500000 10.380000  0.000000   0.000000   0.000000  
; 03-0160
03-0160          129.000000 10.110000  0.000000   0.000000   0.000000  
; 03-0161
03-0161          87.700000  5.300000   0.000000   0.000000   0.000000  
; 03-0162
03-0162          92.200000  5.800000   0.000000   0.000000   0.000000  
; 03-0163
03-0163          101.200000 6.800000   0.000000   0.000000   0.000000  
; 03-0164
03-0164          112.500000 8.800000   0.000000   0.000000   0.000000  
; 03-0165
03-0165          127.000000 10.230000  0.000000   0.000000   0.000000  
; 04-0101
04-0101          79.450000  12.820000  0.000000   0.000000   0.000000  
; 04-0102
04-0102          80.500000  13.850000  0.000000   0.000000   0.000000  
; 04-0103
04-0103          82.700000  10.910000  0.000000   0.000000   0.000000  
; 04-0104
04-0104          84.000000  12.540000  0.000000   0.000000   0.000000  
; 04-0105
04-0105          84.500000  7.000000   0.000000   0.000000   0.000000  
; 05-0101
05-0101          0.860000   15.800000  0.000000   0.000000   0.000000  
; 05-0102
05-0102          10.200000  14.730000  0.000000   0.000000   0.000000  
; 05-0103
05-0103          16.200000  14.670000  0.000000   0.000000   0.000000  
; 05-0104
05-0104          17.500000  17.630000  0.000000   0.000000   0.000000  
; 05-0105
05-0105          67.700000  8.400000   0.000000   0.000000   0.000000  
; 05-0106
05-0106          85.000000  10.710000  0.000000   0.000000   0.000000  
; 05-0110
05-0110          3.060000   12.620000  0.000000   0.000000   0.000000  
; 05-0111
05-0111          3.940000   11.750000  0.000000   0.000000   0.000000  
; 05-0112
05-0112          8.200000   14.640000  0.000000   0.000000   0.000000  
; 05-0113
05-0113          15.000000  13.160000  0.000000   0.000000   0.000000  
; 05-0114
05-0114          16.000000  13.060000  0.000000   0.000000   0.000000  
; 05-0115
05-0115          18.020000  13.070000  0.000000   0.000000   0.000000  
; 05-0130
05-0130          18.880000  16.120000  0.000000   0.000000   0.000000  
; 05-0131
05-0131          20.290000  8.710000   0.000000   0.000000   0.000000  
; 05-0132
05-0132          20.810000  9.190000   0.000000   0.000000   0.000000  
; 05-0133
05-0133          57.200000  7.800000   0.000000   0.000000   0.000000  
; 05-0134
05-0134          88.200000  7.800000   0.000000   0.000000   0.000000  
; 05-0135
05-0135          128.000000 8.000000   0.000000   0.000000   0.000000  
; 06-0101
06-0101          114.670000 7.330000   0.000000   0.000000   0.000000  
; 06-0102
06-0102          116.220000 6.280000   0.000000   0.000000   0.000000  
; 06-0103
06-0103          116.700000 8.800000   0.000000   0.000000   0.000000  
; 06-0104
06-0104          117.930000 8.570000   0.000000   0.000000   0.000000  
; 06-0105
06-0105          125.500000 10.000000  0.000000   0.000000   0.000000  
; 06-0106
06-0106          128.500000 7.500000   0.000000   0.000000   0.000000  
; 06-0110
06-0110          116.200000 13.460000  0.000000   0.000000   0.000000  
; 06-0111
06-0111          122.200000 15.830000  0.000000   0.000000   0.000000  
; 06-0112
06-0112          146.000000 8.280000   0.000000   0.000000   0.000000  
; 06-0113
06-0113          130.500000 10.500000  0.000000   0.000000   0.000000  
; 10-0090
10-0090          -1.610000  17.110000  0.000000   0.000000   0.000000  
; 10-0091
10-0091          -1.000000  15.000000  0.000000   0.000000   0.000000  
; 10-0092
10-0092          1.380000   14.620000  0.000000   0.000000   0.000000  
; 10-0093
10-0093          1.900000   13.100000  0.000000   0.000000   0.000000  
; 10-0094
10-0094          5.850000   7.650000   0.000000   0.000000   0.000000  
; 10-0095
10-0095          -0.680000  15.680000  0.000000   0.000000   0.000000  
; 10-0096
10-0096          -0.010000  12.010000  0.000000   0.000000   0.000000  
; 10-0097
10-0097          0.390000   14.610000  0.000000   0.000000   0.000000  
; 10-0098
10-0098          1.050000   14.950000  0.000000   0.000000   0.000000  
; 10-0099
10-0099          1.270000   12.230000  0.000000   0.000000   0.000000  
; 10-0103
10-0103          5.800000   10.200000  0.000000   0.000000   0.000000  
; 10-0104
10-0104          7.080000   4.920000   0.000000   0.000000   0.000000  
; 10-0105
10-0105          7.340000   8.660000   0.000000   0.000000   0.000000  
; 10-0106
10-0106          8.300000   7.700000   0.000000   0.000000   0.000000  
; 10-0107
10-0107          9.150000   6.850000   0.000000   0.000000   0.000000  
; 10-0108
10-0108          11.050000  4.950000   0.000000   0.000000   0.000000  
; 10-0109
10-0109          13.020000  4.480000   0.000000   0.000000   0.000000  
; 10-0110
10-0110          14.800000  4.200000   0.000000   0.000000   0.000000  
; 10-0111
10-0111          15.590000  13.410000  0.000000   0.000000   0.000000  
; 10-0112
10-0112          16.360000  4.640000   0.000000   0.000000   0.000000  
; 10-0113
10-0113          16.980000  5.520000   0.000000   0.000000   0.000000  
; 10-0114
10-0114          17.560000  5.440000   0.000000   0.000000   0.000000  
; 10-0115
10-0115          17.610000  2.890000   0.000000   0.000000   0.000000  
; 10-0116
10-0116          18.510000  2.490000   0.000000   0.000000   0.000000  
; 10-0117
10-0117          19.310000  2.190000   0.000000   0.000000   0.000000  
; 10-0118
10-0118          19.930000  4.570000   0.000000   0.000000   0.000000  
; 10-0119
10-0119          35.960000  5.040000   0.000000   0.000000   0.000000  
; 10-0120
10-0120          38.010000  6.490000   0.000000   0.000000   0.000000  
; 10-0121
10-0121          39.000000  6.000000   0.000000   0.000000   0.000000  
; 10-0122
10-0122          40.880000  5.120000   0.000000   0.000000   0.000000  
; 10-0122A
10-0122A         44.010000  5.990000   0.000000   0.000000   0.000000  
; 10-0122B
10-0122B         47.250000  8.750000   0.000000   0.000000   0.000000  
; 10-0123
10-0123          50.030000  6.970000   0.000000   0.000000   0.000000  
; 10-0124
10-0124          50.630000  5.770000   0.000000   0.000000   0.000000  
; 10-0125
10-0125          50.730000  3.270000   0.000000   0.000000   0.000000  
; 10-0126
10-0126          51.070000  3.930000   0.000000   0.000000   0.000000  
; 10-0127
10-0127          52.160000  5.340000   0.000000   0.000000   0.000000  
; 10-0128
10-0128          53.910000  7.830000   0.000000   0.000000   0.000000  
; 10-0131
10-0131          61.270000  10.610000  0.000000   0.000000   0.000000  
; 10-0132
10-0132          70.470000  4.030000   0.000000   0.000000   0.000000  
; 10-0133
10-0133          72.880000  5.120000   0.000000   0.000000   0.000000  
; 10-0133A
10-0133A         73.830000  6.170000   0.000000   0.000000   0.000000  
; 10-0134
10-0134          76.010000  4.990000   0.000000   0.000000   0.000000  
; 10-0135
10-0135          78.030000  5.470000   0.000000   0.000000   0.000000  
; 10-0136
10-0136          82.430000  4.570000   0.000000   0.000000   0.000000  
; 10-0137
10-0137          86.000000  5.000000   0.000000   0.000000   0.000000  
; 10-0138
10-0138          90.470000  5.530000   0.000000   0.000000   0.000000  
; 10-0139
10-0139          95.460000  5.040000   0.000000   0.000000   0.000000  
; 10-0139A
10-0139A         98.000000  3.870000   0.000000   0.000000   0.000000  
; 10-0140
10-0140          99.500000  5.000000   0.000000   0.000000   0.000000  
; 10-0141
10-0141          106.320000 5.180000   0.000000   0.000000   0.000000  
; 10-0142
10-0142          109.260000 5.740000   0.000000   0.000000   0.000000  
; 10-0143
10-0143          117.770000 4.230000   0.000000   0.000000   0.000000  
; 10-0144
10-0144          125.740000 5.260000   0.000000   0.000000   0.000000  
; 10-0145
10-0145          136.100000 5.900000   0.000000   0.000000   0.000000  
; 10-0146
10-0146          147.680000 4.820000   0.000000   0.000000   0.000000  
; 10-0147
10-0147          159.450000 5.550000   0.000000   0.000000   0.000000  
; 10-0148
10-0148          168.020000 4.950000   0.000000   0.000000   0.000000  
; 10-0149
10-0149          172.200000 5.000000   0.000000   0.000000   0.000000  
; 10-0149A
10-0149A         173.040000 4.740000   0.000000   0.000000   0.000000  
; 10-0155
10-0155          55.030000  4.370000   0.000000   0.000000   0.000000  
; 10-0156
10-0156          57.000000  4.000000   0.000000   0.000000   0.000000  
; 10-0157
10-0157          57.600000  8.270000   0.000000   0.000000   0.000000  
; 10-0158
10-0158          60.000000  10.000000  0.000000   0.000000   0.000000  
; 10-0160
10-0160          106.780000 4.220000   0.000000   0.000000   0.000000  
; 10-0161
10-0161          112.930000 4.370000   0.000000   0.000000   0.000000  
; 10-0162
10-0162          126.270000 4.230000   0.000000   0.000000   0.000000  
; 10-0163
10-0163          127.480000 6.120000   0.000000   0.000000   0.000000  
; 10-0164
10-0164          130.910000 7.090000   0.000000   0.000000   0.000000  
; 10-0165
10-0165          134.390000 4.410000   0.000000   0.000000   0.000000  
; 10-0166
10-0166          136.410000 4.590000   0.000000   0.000000   0.000000  
; 10-0167
10-0167          140.770000 4.230000   0.000000   0.000000   0.000000  
; 10-0170
10-0170          58.130000  16.650000  0.000000   0.000000   0.000000  
; 10-0170A
10-0170A         59.160000  21.750000  0.000000   0.000000   0.000000  
; 10-0171
10-0171          79.970000  16.450000  0.000000   0.000000   0.000000  
; 10-0172
10-0172          82.660000  28.390000  0.000000   0.000000   0.000000  
; 10-0173
10-0173          113.450000 17.640000  0.000000   0.000000   0.000000  
; 10-0174
10-0174          137.440000 13.660000  0.000000   0.000000   0.000000  
; 10-0175
10-0175          142.780000 14.220000  0.000000   0.000000   0.000000  
; 10-0176
10-0176          148.460000 15.350000  0.000000   0.000000   0.000000  
; 10-0177
10-0177          153.250000 13.090000  0.000000   0.000000   0.000000  
; 10-0178
10-0178          83.600000  25.080000  0.000000   0.000000   0.000000  
; 10-0179
10-0179          84.460000  22.080000  0.000000   0.000000   0.000000  
; 10-0180
10-0180          85.530000  19.430000  0.000000   0.000000   0.000000  
; 10-0181
10-0181          111.970000 11.880000  0.000000   0.000000   0.000000  
; 10-0182
10-0182          117.670000 13.760000  0.000000   0.000000   0.000000  
; 10-0183
10-0183          144.980000 10.600000  0.000000   0.000000   0.000000  
; 10-0184
10-0184          86.580000  11.830000  0.000000   0.000000   0.000000  
; 10-0185
10-0185          88.000000  8.860000   0.000000   0.000000   0.000000  
; 10-0186
10-0186          157.490000 12.220000  0.000000   0.000000   0.000000  
; 10-0187
10-0187          163.310000 14.580000  0.000000   0.000000   0.000000  
; 10-0188
10-0188          164.880000 19.870000  0.000000   0.000000   0.000000  
; 10-0189
10-0189          165.020000 22.640000  0.000000   0.000000   0.000000  
; 10-0190
10-0190          180.900000 13.670000  0.000000   0.000000   0.000000  
; 10-0191
10-0191          176.080000 11.530000  0.000000   0.000000   0.000000  
; 10-0192
10-0192          173.330000 6.640000   0.000000   0.000000   0.000000  
; WOODSTREAM SEC 2
10-0197          145.940000 5.300000   0.000000   0.000000   0.000000  
; WOODSTREAM SEC 2
10-0198          135.510000 13.440000  0.000000   0.000000   0.000000  
; WOODSTREAM SEC 2
10-0199          131.090000 22.060000  0.000000   0.000000   0.000000  
; 10-0200
10-0200          1.580000   13.420000  0.000000   0.000000   0.000000  
; 10-0201
10-0201          7.500000   6.360000   0.000000   0.000000   0.000000  
; 10-0202
10-0202          8.490000   6.610000   0.000000   0.000000   0.000000  
; 10-0203
10-0203          9.730000   6.030000   0.000000   0.000000   0.000000  
; 10-0204
10-0204          10.510000  7.000000   0.000000   0.000000   0.000000  
; 10-0205
10-0205          11.010000  4.840000   0.000000   0.000000   0.000000  
; 10-0206
10-0206          11.830000  7.000000   0.000000   0.000000   0.000000  
; 10-0207
10-0207          12.710000  8.670000   0.000000   0.000000   0.000000  
; 10-0208
10-0208          13.690000  6.910000   0.000000   0.000000   0.000000  
; 10-0209
10-0209          14.460000  7.100000   0.000000   0.000000   0.000000  
; 10-0210
10-0210          15.680000  8.730000   0.000000   0.000000   0.000000  
; 10-0211
10-0211          18.890000  9.670000   0.000000   0.000000   0.000000  
; 10-0213
10-0213          34.000000  4.000000   0.000000   0.000000   0.000000  
; 10-0214
10-0214          35.000000  4.500000   0.000000   0.000000   0.000000  
; 10-0215
10-0215          36.000000  12.800000  0.000000   0.000000   0.000000  
; 10-0216
10-0216          53.000000  10.000000  0.000000   0.000000   0.000000  
; 10-0217
10-0217          64.650000  10.150000  0.000000   0.000000   0.000000  
; 10-0218
10-0218          64.880000  10.120000  0.000000   0.000000   0.000000  
; 10-0219
10-0219          65.000000  8.000000   0.000000   0.000000   0.000000  
; 10-0220
10-0220          65.890000  5.000000   0.000000   0.000000   0.000000  
; 10-0221
10-0221          78.740000  10.000000  0.000000   0.000000   0.000000  
; 10-0222
10-0222          94.150000  10.000000  0.000000   0.000000   0.000000  
; 10-0223
10-0223          106.290000 10.000000  0.000000   0.000000   0.000000  
; 10-0224
10-0224          118.800000 9.380000   0.000000   0.000000   0.000000  
; 10-0225
10-0225          141.180000 10.000000  0.000000   0.000000   0.000000  
; 10-0226
10-0226          162.300000 5.510000   0.000000   0.000000   0.000000  
; 10-0227
10-0227          164.050000 13.950000  0.000000   0.000000   0.000000  
; 10-0228
10-0228          168.900000 9.730000   0.000000   0.000000   0.000000  
; 10-0229
10-0229          178.380000 9.020000   0.000000   0.000000   0.000000  
; 10-0230
10-0230          179.680000 15.320000  0.000000   0.000000   0.000000  
; 10-0231
10-0231          180.930000 10.060000  0.000000   0.000000   0.000000  
; 10-0231A
10-0231A         181.890000 12.220000  0.000000   0.000000   0.000000  
; 10-0232
10-0232          182.340000 12.840000  0.000000   0.000000   0.000000  
; 10-0233
10-0233          183.800000 12.580000  0.000000   0.000000   0.000000  
; 10-0234
10-0234          184.000000 4.510000   0.000000   0.000000   0.000000  
; 10-0234A
10-0234A         184.220000 5.200000   0.000000   0.000000   0.000000  
; 10-0234B
10-0234B         187.420000 5.080000   0.000000   0.000000   0.000000  
; 10-0234C
10-0234C         190.000000 13.470000  0.000000   0.000000   0.000000  
; 10-0236
10-0236          185.790000 14.440000  0.000000   0.000000   0.000000  
; 10-0237
10-0237          184.590000 14.900000  0.000000   0.000000   0.000000  
; 10-0238
10-0238          185.120000 13.430000  0.000000   0.000000   0.000000  
; 10-0239
10-0239          185.300000 12.900000  0.000000   0.000000   0.000000  
; 10-0240
10-0240          191.470000 8.140000   0.000000   0.000000   0.000000  
; 10-0240A
10-0240A         191.600000 11.200000  0.000000   0.000000   0.000000  
; 10-0240B
10-0240B         192.400000 8.310000   0.000000   0.000000   0.000000  
; 10-0240C
10-0240C         196.000000 6.910000   0.000000   0.000000   0.000000  
; 10-0240D
10-0240D         199.000000 6.500000   0.000000   0.000000   0.000000  
; 10-0241
10-0241          193.570000 16.430000  0.000000   0.000000   0.000000  
; 10-0242
10-0242          197.000000 8.000000   0.000000   0.000000   0.000000  
; 10-0243
10-0243          207.620000 6.980000   0.000000   0.000000   0.000000  
; 10-0250
10-0250          201.000000 5.500000   0.000000   0.000000   0.000000  
10-0251          201.300000 8.200000   0.000000   0.000000   0.000000  
; 10-0252
10-0252          203.530000 9.470000   0.000000   0.000000   0.000000  
; 10-0253
10-0253          203.960000 10.780000  0.000000   0.000000   0.000000  
; 10-0253A
10-0253A         0.000000   215.000000 0.000000   0.000000   0.000000  
; 10-0254
10-0254          204.440000 12.560000  0.000000   0.000000   0.000000  
; 10-0255
10-0255          204.000000 13.500000  0.000000   0.000000   0.000000  
; 10-0256
10-0256          205.960000 5.040000   0.000000   0.000000   0.000000  
; 10-0257
10-0257          206.120000 3.880000   0.000000   0.000000   0.000000  
; 10-0258
10-0258          206.100000 4.400000   0.000000   0.000000   0.000000  
; 10-0259
10-0259          206.700000 6.000000   0.000000   0.000000   0.000000  
; 10-0260
10-0260          207.190000 5.950000   0.000000   0.000000   0.000000  
; 10-0261
10-0261          208.120000 16.080000  0.000000   0.000000   0.000000  
; 10-0261A
10-0261A         208.480000 15.730000  0.000000   0.000000   0.000000  
; 10-0262
10-0262          209.210000 20.850000  0.000000   0.000000   0.000000  
; 10-0262A
10-0262A         209.630000 24.290000  0.000000   0.000000   0.000000  
; 10-0263
10-0263          210.540000 28.260000  0.000000   0.000000   0.000000  
; 10-0263A
10-0263A         212.650000 6.950000   0.000000   0.000000   0.000000  
; 10-0263B
10-0263B         213.180000 5.860000   0.000000   0.000000   0.000000  
; 10-0264
10-0264          238.440000 7.400000   0.000000   0.000000   0.000000  
; 10-0264A
10-0264A         240.660000 11.780000  0.000000   0.000000   0.000000  
; 10-0264B
10-0264B         247.210000 9.340000   0.000000   0.000000   0.000000  
; 10-0265
10-0265          215.400000 5.600000   0.000000   0.000000   0.000000  
; 10-0265A
10-0265A         213.400000 7.600000   0.000000   0.000000   0.000000  
; 10-0266
10-0266          229.020000 4.980000   0.000000   0.000000   0.000000  
; 10-0267
10-0267          235.410000 4.590000   0.000000   0.000000   0.000000  
; 10-0268
10-0268          242.610000 6.390000   0.000000   0.000000   0.000000  
; 10-0270
10-0270          244.500000 8.600000   0.000000   0.000000   0.000000  
; 10-0271
10-0271          248.220000 9.780000   0.000000   0.000000   0.000000  
; 10-0271A
10-0271A         248.680000 13.550000  0.000000   0.000000   0.000000  
; 10-0272
10-0272          248.880000 13.120000  0.000000   0.000000   0.000000  
; 10-0272A
10-0272A         250.000000 10.290000  0.000000   0.000000   0.000000  
; 10-0273
10-0273          250.100000 6.900000   0.000000   0.000000   0.000000  
; 10-0274
10-0274          250.800000 4.700000   0.000000   0.000000   0.000000  
; 10-0275
10-0275          251.120000 4.380000   0.000000   0.000000   0.000000  
; 10-0276
10-0276          251.440000 5.560000   0.000000   0.000000   0.000000  
; 10-0277
10-0277          0.000000   260.800000 0.000000   0.000000   0.000000  
; 10-0278
10-0278          0.000000   264.000000 0.000000   0.000000   0.000000  
; 10-0280
10-0280          204.180000 8.490000   0.000000   0.000000   0.000000  
; 10-0281
10-0281          205.500000 3.100000   0.000000   0.000000   0.000000  
; 10-0282
10-0282          184.400000 12.100000  0.000000   0.000000   0.000000  
; 10-0283
10-0283          185.400000 10.300000  0.000000   0.000000   0.000000  
; 10-0284
10-0284          186.270000 9.230000   0.000000   0.000000   0.000000  
; 10-0285
10-0285          185.700000 11.800000  0.000000   0.000000   0.000000  
; 10-0286
10-0286          186.290000 8.910000   0.000000   0.000000   0.000000  
; 10-0287
10-0287          187.010000 7.990000   0.000000   0.000000   0.000000  
; 10-0288
10-0288          186.420000 1.490000   0.000000   0.000000   0.000000  
; 10-0290
10-0290          247.970000 5.030000   0.000000   0.000000   0.000000  
; 10-0291
10-0291          256.020000 0.000000   0.000000   0.000000   0.000000  
; 10-0292
10-0292          263.500000 5.000000   0.000000   0.000000   0.000000  
; 10-0295
10-0295          260.880000 5.120000   0.000000   0.000000   0.000000  
; 10-0296
10-0296          275.500000 4.500000   0.000000   0.000000   0.000000  
; 10-0297
10-0297          210.320000 10.680000  0.000000   0.000000   0.000000  
; 10-0298
10-0298          212.190000 8.220000   0.000000   0.000000   0.000000  
; 10-0299
10-0299          213.300000 9.000000   0.000000   0.000000   0.000000  
; 10-0300
10-0300          8.100000   5.900000   0.000000   0.000000   0.000000  
; 10-0301
10-0301          9.220000   3.280000   0.000000   0.000000   0.000000  
; 10-0302
10-0302          10.320000  3.680000   0.000000   0.000000   0.000000  
; 10-0303
10-0303          11.420000  4.080000   0.000000   0.000000   0.000000  
; 10-0304
10-0304          17.470000  5.030000   0.000000   0.000000   0.000000  
; 10-0305
10-0305          36.470000  4.030000   0.000000   0.000000   0.000000  
; 10-0306
10-0306          42.000000  6.000000   0.000000   0.000000   0.000000  
; 10-0307
10-0307          46.540000  5.460000   0.000000   0.000000   0.000000  
; 10-0308
10-0308          46.540000  15.960000  0.000000   0.000000   0.000000  
; 10-0348
10-0348          55.000000  5.470000   0.000000   0.000000   0.000000  
; 10-0350
10-0350          18.650000  4.350000   0.000000   0.000000   0.000000  
; 10-0351
10-0351          20.650000  6.350000   0.000000   0.000000   0.000000  
; 10-0352
10-0352          33.760000  5.740000   0.000000   0.000000   0.000000  
; 10-0353
10-0353          42.000000  7.000000   0.000000   0.000000   0.000000  
; 10-0354
10-0354          43.120000  5.880000   0.000000   0.000000   0.000000  
; 10-0355
10-0355          43.950000  3.550000   0.000000   0.000000   0.000000  
; 10-0356
10-0356          44.880000  6.120000   0.000000   0.000000   0.000000  
; 10-0357
10-0357          51.440000  4.560000   0.000000   0.000000   0.000000  
; 10-0358
10-0358          57.520000  3.980000   0.000000   0.000000   0.000000  
; 10-0359
10-0359          66.420000  5.580000   0.000000   0.000000   0.000000  
; 10-0360
10-0360          68.930000  5.070000   0.000000   0.000000   0.000000  
; 10-0361
10-0361          70.880000  5.120000   0.000000   0.000000   0.000000  
; 10-0362
10-0362          82.890000  5.110000   0.000000   0.000000   0.000000  
; 10-0363
10-0363          102.900000 5.100000   0.000000   0.000000   0.000000  
; 10-0364
10-0364          110.360000 4.640000   0.000000   0.000000   0.000000  
; 10-0365
10-0365          115.950000 5.700000   0.000000   0.000000   0.000000  
; 10-0366
10-0366          125.780000 7.520000   0.000000   0.000000   0.000000  
; 10-0367
10-0367          148.810000 6.550000   0.000000   0.000000   0.000000  
; 10-0368
10-0368          155.580000 12.600000  0.000000   0.000000   0.000000  
; 10-0369
10-0369          159.670000 7.410000   0.000000   0.000000   0.000000  
; 10-0370
10-0370          165.020000 7.890000   0.000000   0.000000   0.000000  
; 10-0371
10-0371          168.440000 7.580000   0.000000   0.000000   0.000000  
; 10-0372
10-0372          171.660000 7.300000   0.000000   0.000000   0.000000  
; 10-0373
10-0373          174.300000 6.820000   0.000000   0.000000   0.000000  
; 10-0374
10-0374          177.590000 7.470000   0.000000   0.000000   0.000000  
; 10-0375
10-0375          180.890000 2.390000   0.000000   0.000000   0.000000  
; 10-0376
10-0376          181.000000 11.180000  0.000000   0.000000   0.000000  
; 10-0377
10-0377          186.930000 7.740000   0.000000   0.000000   0.000000  
; 10-0378
10-0378          182.650000 7.040000   0.000000   0.000000   0.000000  
; 10-0390
10-0390          54.190000  5.810000   0.000000   0.000000   0.000000  
; 10-0400
10-0400          44.330000  7.250000   0.000000   0.000000   0.000000  
; 10-0400A
10-0400A         48.040000  8.110000   0.000000   0.000000   0.000000  
; 10-0401
10-0401          58.150000  7.880000   0.000000   0.000000   0.000000  
; 10-0402
10-0402          62.350000  10.790000  0.000000   0.000000   0.000000  
; 10-0403
10-0403          75.100000  7.780000   0.000000   0.000000   0.000000  
; 10-0404
10-0404          78.280000  6.450000   0.000000   0.000000   0.000000  
; 10-0405