[TITLE]
;;Project Title/Notes

[OPTIONS]
;;Option             Value
FLOW_UNITS           GPM
INFILTRATION         HORTON
FLOW_ROUTING         DYNWAVE
LINK_OFFSETS         DEPTH
MIN_SLOPE            0
ALLOW_PONDING        YES
SKIP_STEADY_STATE    NO

START_DATE           07/17/2011
START_TIME           00:00:00
REPORT_START_DATE    07/18/2011
REPORT_START_TIME    00:00:00
END_DATE             07/25/2011
END_TIME             00:00:00
SWEEP_START          01/01
SWEEP_END            12/31
DRY_DAYS             5.000000
REPORT_STEP          00:15:00
WET_STEP             00:01:00
DRY_STEP             00:23:00
ROUTING_STEP         0:01:00 

INERTIAL_DAMPING     FULL
NORMAL_FLOW_LIMITED  SLOPE
FORCE_MAIN_EQUATION  H-W
VARIABLE_STEP        0.00
LENGTHENING_STEP     30
MIN_SURFAREA         0
MAX_TRIALS           0
HEAD_TOLERANCE       0
SYS_FLOW_TOL         5
LAT_FLOW_TOL         5
MINIMUM_STEP         0.5
THREADS              1

[EVAPORATION]
;;Data Source    Parameters
;;-------------- ----------------
CONSTANT         0.000000
DRY_ONLY         NO

[JUNCTIONS]
;;Name           Elevation  MaxDepth   InitDepth  SurDepth   Aponded   
;;-------------- ---------- ---------- ---------- ---------- ----------
000              1725.160000 7.840000   0.000000   0.000000   0.000000  
001              1725.510000 7.390000   0.000000   0.000000   0.000000  
002              1725.870000 7.830000   0.000000   0.000000   0.000000  
003              1726.270000 7.230000   0.000000   0.000000   0.000000  
004              1726.780000 7.720000   0.000000   0.000000   0.000000  
005              1727.290000 8.710000   0.000000   0.000000   0.000000  
007              1728.320000 9.880000   0.000000   0.000000   0.000000  
008              1728.900000 11.100000  0.000000   0.000000   0.000000  
008A             1729.160000 14.340000  0.000000   0.000000   0.000000  
008B             1729.390000 12.110000  0.000000   0.000000   0.000000  
009              1729.480000 10.920000  0.000000   0.000000   0.000000  
010              1729.930000 9.670000   0.000000   0.000000   0.000000  
011              1731.350000 9.450000   0.000000   0.000000   0.000000  
012              1732.500000 9.700000   0.000000   0.000000   0.000000  
013              1733.650000 10.150000  0.000000   0.000000   0.000000  
014              1734.980000 10.620000  0.000000   0.000000   0.000000  
015              1736.310000 11.090000  0.000000   0.000000   0.000000  
016              1736.570000 10.630000  0.000000   0.000000   0.000000  
017              1738.000000 10.000000  0.000000   0.000000   0.000000  
018              1739.830000 9.770000   0.000000   0.000000   0.000000  
019              1741.660000 10.040000  0.000000   0.000000   0.000000  
020              1742.580000 10.520000  0.000000   0.000000   0.000000  
021              1743.490000 11.010000  0.000000   0.000000   0.000000  
022              1744.410000 12.590000  0.000000   0.000000   0.000000  
100              1750.060000 7.740000   0.000000   0.000000   0.000000  
100A             1750.700000 7.640000   0.000000   0.000000   0.000000  
101              1750.910000 9.190000   0.000000   0.000000   0.000000  
101A             1751.200000 9.300000   0.000000   0.000000   0.000000  
102              1751.650000 8.650000   0.000000   0.000000   0.000000  
102A             1751.870000 9.630000   0.000000   0.000000   0.000000  
103              1752.380000 10.020000  0.000000   0.000000   0.000000  
103A             1752.560000 10.620000  0.000000   0.000000   0.000000  
104              1753.120000 10.180000  0.000000   0.000000   0.000000  
104A             1752.980000 10.420000  0.000000   0.000000   0.000000  
105              1754.010000 10.490000  0.000000   0.000000   0.000000  
106              1754.780000 9.820000   0.000000   0.000000   0.000000  
107              1755.530000 8.970000   0.000000   0.000000   0.000000  
108              1756.270000 8.030000   0.000000   0.000000   0.000000  
109              1758.430000 7.370000   0.000000   0.000000   0.000000  
110              1758.530000 9.270000   0.000000   0.000000   0.000000  
111              1758.620000 9.980000   0.000000   0.000000   0.000000  
112              1759.370000 10.430000  0.000000   0.000000   0.000000  
113              1760.110000 10.990000  0.000000   0.000000   0.000000  
114              1760.860000 11.340000  0.000000   0.000000   0.000000  
115              1761.610000 11.490000  0.000000   0.000000   0.000000  
116              1762.360000 11.740000  0.000000   0.000000   0.000000  
117              1766.150000 9.450000   0.000000   0.000000   0.000000  
118              1767.860000 8.640000   0.000000   0.000000   0.000000  
119              1768.790000 9.010000   0.000000   0.000000   0.000000  
120              1769.710000 9.790000   0.000000   0.000000   0.000000  
121              1770.640000 10.060000  0.000000   0.000000   0.000000  
122              1771.570000 10.330000  0.000000   0.000000   0.000000  
123              1772.510000 10.690000  0.000000   0.000000   0.000000  
124              1773.440000 10.660000  0.000000   0.000000   0.000000  
125              1777.200000 8.300000   0.000000   0.000000   0.000000  
126              1778.150000 8.550000   0.000000   0.000000   0.000000  
127              1779.110000 9.290000   0.000000   0.000000   0.000000  
128              1780.060000 11.940000  0.000000   0.000000   0.000000  
134              1767.420000 9.080000   0.000000   0.000000   0.000000  
135              1768.520000 8.480000   0.000000   0.000000   0.000000  
136              1769.620000 8.680000   0.000000   0.000000   0.000000  
137              1770.710000 8.590000   0.000000   0.000000   0.000000  
138              1771.810000 9.190000   0.000000   0.000000   0.000000  
138A             1772.510000 8.990000   0.000000   0.000000   0.000000  
139              1772.910000 8.990000   0.000000   0.000000   0.000000  
140              1774.010000 8.990000   0.000000   0.000000   0.000000  
141              1775.150000 8.450000   0.000000   0.000000   0.000000  
142              1776.300000 8.200000   0.000000   0.000000   0.000000  
143              1777.450000 8.850000   0.000000   0.000000   0.000000  
144              1778.600000 8.900000   0.000000   0.000000   0.000000  
145              1779.740000 8.360000   0.000000   0.000000   0.000000  
146              1780.890000 7.710000   0.000000   0.000000   0.000000  
147              1782.040000 8.760000   0.000000   0.000000   0.000000  
147A             1782.600000 9.100000   0.000000   0.000000   0.000000  
148              1783.060000 5.040000   0.000000   0.000000   0.000000  
149              1784.930000 8.070000   0.000000   0.000000   0.000000  
150              1786.800000 8.400000   0.000000   0.000000   0.000000  
150A             1786.990000 8.310000   0.000000   0.000000   0.000000  
151              1787.820000 9.180000   0.000000   0.000000   0.000000  
151A             1787.910000 8.180000   0.000000   0.000000   0.000000  
152              1788.840000 8.660000   0.000000   0.000000   0.000000  
152A             1789.410000 8.630000   0.000000   0.000000   0.000000  
153              1789.860000 9.340000   0.000000   0.000000   0.000000  
166              1769.800000 9.000000   0.000000   0.000000   0.000000  
167              1770.830000 8.570000   0.000000   0.000000   0.000000  
; Flow Monitor 01
168              1771.870000 8.630000   0.000000   0.000000   0.000000  
169              1772.900000 8.500000   0.000000   0.000000   0.000000  
170              1773.520000 9.380000   0.000000   0.000000   0.000000  
171              1774.970000 8.630000   0.000000   0.000000   0.000000  
172              1776.010000 8.990000   0.000000   0.000000   0.000000  
173              1777.050000 7.950000   0.000000   0.000000   0.000000  
174              1777.960000 9.140000   0.000000   0.000000   0.000000  
175              1778.770000 8.230000   0.000000   0.000000   0.000000  
176              1779.190000 9.410000   0.000000   0.000000   0.000000  
177              1780.400000 10.400000  0.000000   0.000000   0.000000  
178              1783.550000 9.050000   0.000000   0.000000   0.000000  
179              1784.630000 10.170000  0.000000   0.000000   0.000000  
180              1786.660000 10.240000  0.000000   0.000000   0.000000  
181              1788.070000 9.330000   0.000000   0.000000   0.000000  
182              1789.140000 9.360000   0.000000   0.000000   0.000000  
182A             1789.430000 9.370000   0.000000   0.000000   0.000000  
183              1790.210000 9.290000   0.000000   0.000000   0.000000  
183A             1790.330000 9.370000   0.000000   0.000000   0.000000  
184              1791.290000 10.210000  0.000000   0.000000   0.000000  
185              1792.360000 10.440000  0.000000   0.000000   0.000000  
185A             1792.470000 10.430000  0.000000   0.000000   0.000000  
186              1793.440000 10.260000  0.000000   0.000000   0.000000  
187              1794.370000 10.930000  0.000000   0.000000   0.000000  
187A             1794.850000 10.500000  0.000000   0.000000   0.000000  
188              1795.310000 10.090000  0.000000   0.000000   0.000000  
189              1796.250000 9.450000   0.000000   0.000000   0.000000  
190              1797.180000 9.820000   0.000000   0.000000   0.000000  
191              1798.120000 9.980000   0.000000   0.000000   0.000000  
192              1799.060000 9.940000   0.000000   0.000000   0.000000  
201              1800.870000 9.630000   0.000000   0.000000   0.000000  
202              1802.430000 9.570000   0.000000   0.000000   0.000000  
203              1803.990000 9.510000   0.000000   0.000000   0.000000  
204              1805.550000 10.350000  0.000000   0.000000   0.000000  
205              1807.110000 10.390000  0.000000   0.000000   0.000000  
206              1808.670000 9.530000   0.000000   0.000000   0.000000  
207              1810.230000 9.770000   0.000000   0.000000   0.000000  
208              1811.790000 10.210000  0.000000   0.000000   0.000000  
209              1815.970000 9.730000   0.000000   0.000000   0.000000  
210              1816.890000 9.110000   0.000000   0.000000   0.000000  
211              1817.820000 9.280000   0.000000   0.000000   0.000000  
212              1818.740000 9.260000   0.000000   0.000000   0.000000  
213              1819.930000 9.970000   0.000000   0.000000   0.000000  
214              1821.110000 9.690000   0.000000   0.000000   0.000000  
215              1822.300000 10.200000  0.000000   0.000000   0.000000  
216              1823.480000 9.520000   0.000000   0.000000   0.000000  
217              1824.910000 8.990000   0.000000   0.000000   0.000000  
218              1826.120000 9.380000   0.000000   0.000000   0.000000  
219              1827.380000 9.120000   0.000000   0.000000   0.000000  
220              1828.520000 8.380000   0.000000   0.000000   0.000000  
221              1829.860000 9.340000   0.000000   0.000000   0.000000  
222              1831.210000 8.990000   0.000000   0.000000   0.000000  
223              1832.550000 9.550000   0.000000   0.000000   0.000000  
224              1833.900000 10.700000  0.000000   0.000000   0.000000  
225              1835.230000 12.970000  0.000000   0.000000   0.000000  
226              1836.730000 10.270000  0.000000   0.000000   0.000000  
227              1838.040000 10.160000  0.000000   0.000000   0.000000  
228              1839.330000 9.770000   0.000000   0.000000   0.000000  
229              1840.000000 11.700000  0.000000   0.000000   0.000000  
23               1745.320000 14.680000  0.000000   0.000000   0.000000  
230              1840.390000 11.010000  0.000000   0.000000   0.000000  
231              1840.560000 10.640000  0.000000   0.000000   0.000000  
231A             1841.850000 8.150000   0.000000   0.000000   0.000000  
232              1847.430000 7.070000   0.000000   0.000000   0.000000  
233              1848.370000 7.630000   0.000000   0.000000   0.000000  
234              1849.310000 7.690000   0.000000   0.000000   0.000000  
235              1850.370000 8.530000   0.000000   0.000000   0.000000  
236              1854.430000 8.470000   0.000000   0.000000   0.000000  
237              1855.510000 9.290000   0.000000   0.000000   0.000000  
238              1856.600000 6.400000   0.000000   0.000000   0.000000  
239              1846.600000 8.100000   0.000000   0.000000   0.000000  
239A             1846.310000 8.790000   0.000000   0.000000   0.000000  
24               1750.030000 10.570000  0.000000   0.000000   0.000000  
240              1846.950000 7.650000   0.000000   0.000000   0.000000  
240A             1846.730000 8.970000   0.000000   0.000000   0.000000  
241              1847.320000 8.380000   0.000000   0.000000   0.000000  
241A             1848.950000 7.150000   0.000000   0.000000   0.000000  
242              1849.500000 7.000000   0.000000   0.000000   0.000000  
248              1763.450000 11.250000  0.000000   0.000000   0.000000  
249              1764.360000 9.940000   0.000000   0.000000   0.000000  
25               1751.430000 9.870000   0.000000   0.000000   0.000000  
250              1765.260000 9.740000   0.000000   0.000000   0.000000  
251              1766.170000 9.630000   0.000000   0.000000   0.000000  
252              1767.380000 10.000000  0.000000   0.000000   0.000000  
253              1768.460000 12.000000  0.000000   0.000000   0.000000  
254              1769.020000 13.530000  0.000000   0.000000   0.000000  
255              1770.630000 13.000000  0.000000   0.000000   0.000000  
256              1771.720000 13.000000  0.000000   0.000000   0.000000  
257              1772.770000 14.000000  0.000000   0.000000   0.000000  
258              1773.740000 13.860000  0.000000   0.000000   0.000000  
26               1752.820000 9.080000   0.000000   0.000000   0.000000  
27               1754.220000 9.080000   0.000000   0.000000   0.000000  
28               1755.610000 8.390000   0.000000   0.000000   0.000000  
29               1756.970000 9.030000   0.000000   0.000000   0.000000  
30               1758.410000 8.390000   0.000000   0.000000   0.000000  
306              1792.210000 4.490000   0.000000   0.000000   0.000000  
307              1714.110000 7.390000   0.000000   0.000000   0.000000  
308              1714.820000 7.880000   0.000000   0.000000   0.000000  
308A             1715.100000 8.180000   0.000000   0.000000   0.000000  
309              1715.520000 8.160000   0.000000   0.000000   0.000000  
309A             1715.670000 8.160000   0.000000   0.000000   0.000000  
31               1759.830000 8.670000   0.000000   0.000000   0.000000  
310              1716.240000 8.660000   0.000000   0.000000   0.000000  
311              1716.950000 10.450000  0.000000   0.000000   0.000000  
312              1718.780000 10.820000  0.000000   0.000000   0.000000  
313              1720.610000 11.390000  0.000000   0.000000   0.000000  
314              1724.690000 12.010000  0.000000   0.000000   0.000000  
315              1730.990000 11.610000  0.000000   0.000000   0.000000  
316              1739.500000 11.200000  0.000000   0.000000   0.000000  
317              1751.180000 11.320000  0.000000   0.000000   0.000000  
318              1758.990000 11.410000  0.000000   0.000000   0.000000  
319              1763.300000 11.100000  0.000000   0.000000   0.000000  
32               1761.250000 9.250000   0.000000   0.000000   0.000000  
320              1767.200000 11.300000  0.000000   0.000000   0.000000  
321              1769.810000 11.690000  0.000000   0.000000   0.000000  
322              1775.720000 11.280000  0.000000   0.000000   0.000000  
322A             1778.560000 9.390000   0.000000   0.000000   0.000000  
323              1780.520000 11.080000  0.000000   0.000000   0.000000  
324              1783.530000 10.670000  0.000000   0.000000   0.000000  
325              1786.620000 11.880000  0.000000   0.000000   0.000000  
325A             1789.660000 8.740000   0.000000   0.000000   0.000000  
325B             1796.060000 6.940000   0.000000   0.000000   0.000000  
326              1788.380000 11.420000  0.000000   0.000000   0.000000  
327              1790.090000 12.210000  0.000000   0.000000   0.000000  
328              1791.780000 13.220000  0.000000   0.000000   0.000000  
33               1762.710000 9.290000   0.000000   0.000000   0.000000  
34               1764.180000 10.020000  0.000000   0.000000   0.000000  
35               1765.650000 10.750000  0.000000   0.000000   0.000000  
36               1767.080000 10.120000  0.000000   0.000000   0.000000  
37               1768.510000 10.290000  0.000000   0.000000   0.000000  
38               1769.940000 9.460000   0.000000   0.000000   0.000000  
39               1771.000000 9.500000   0.000000   0.000000   0.000000  
398              1754.860000 9.540000   0.000000   0.000000   0.000000  
399              1756.220000 8.880000   0.000000   0.000000   0.000000  
40               1772.080000 9.920000   0.000000   0.000000   0.000000  
41               1773.170000 10.230000  0.000000   0.000000   0.000000  
42               1774.260000 10.340000  0.000000   0.000000   0.000000  
420              1783.610000 9.190000   0.000000   0.000000   0.000000  
421              1785.020000 5.580000   0.000000   0.000000   0.000000  
422              1786.430000 9.970000   0.000000   0.000000   0.000000  
427              1794.820000 10.780000  0.000000   0.000000   0.000000  
428              1795.770000 10.830000  0.000000   0.000000   0.000000  
429              1796.730000 12.070000  0.000000   0.000000   0.000000  
43               1775.220000 10.380000  0.000000   0.000000   0.000000  
430              1797.680000 12.320000  0.000000   0.000000   0.000000  
44               1776.300000 10.600000  0.000000   0.000000   0.000000  
45               1777.380000 10.920000  0.000000   0.000000   0.000000  
46               1778.440000 11.260000  0.000000   0.000000   0.000000  
463              1767.240000 9.460000   0.000000   0.000000   0.000000  
464              1768.310000 8.890000   0.000000   0.000000   0.000000  
465              1769.380000 9.720000   0.000000   0.000000   0.000000  
46A              1778.570000 11.130000  0.000000   0.000000   0.000000  
47               1779.500000 11.500000  0.000000   0.000000   0.000000  
47A              1780.400000 11.400000  0.000000   0.000000   0.000000  
48               1781.010000 11.290000  0.000000   0.000000   0.000000  
489              1779.860000 9.340000   0.000000   0.000000   0.000000  
489A             1780.100000 8.870000   0.000000   0.000000   0.000000  
49               1782.530000 10.970000  0.000000   0.000000   0.000000  
490              1781.330000 8.970000   0.000000   0.000000   0.000000  
491              1782.330000 8.370000   0.000000   0.000000   0.000000  
492              1783.320000 8.580000   0.000000   0.000000   0.000000  
493              1777.900000 7.400000   0.000000   0.000000   0.000000  
494              1775.740000 10.060000  0.000000   0.000000   0.000000  
495              1774.820000 10.580000  0.000000   0.000000   0.000000  
50               1784.040000 10.960000  0.000000   0.000000   0.000000  
51               1785.560000 11.740000  0.000000   0.000000   0.000000  
513              1827.260000 8.540000   0.000000   0.000000   0.000000  
514              1828.220000 8.280000   0.000000   0.000000   0.000000  
515              1828.770000 9.630000   0.000000   0.000000   0.000000  
516              1830.150000 9.850000   0.000000   0.000000   0.000000  
517              1830.550000 10.450000  0.000000   0.000000   0.000000  
518              1832.050000 9.950000   0.000000   0.000000   0.000000  
52               1787.960000 11.840000  0.000000   0.000000   0.000000  
521              1831.750000 9.650000   0.000000   0.000000   0.000000  
522              1833.090000 9.710000   0.000000   0.000000   0.000000  
523              1834.430000 9.070000   0.000000   0.000000   0.000000  
524              1835.760000 9.040000   0.000000   0.000000   0.000000  
53               1790.370000 11.030000  0.000000   0.000000   0.000000  
531              1840.720000 10.180000  0.000000   0.000000   0.000000  
54               1792.780000 10.420000  0.000000   0.000000   0.000000  
55               1794.920000 10.380000  0.000000   0.000000   0.000000  
550              1836.590000 12.510000  0.000000   0.000000   0.000000  
551              1837.580000 9.420000   0.000000   0.000000   0.000000  
56               1797.430000 11.270000  0.000000   0.000000   0.000000  
562              1816.810000 9.790000   0.000000   0.000000   0.000000  
563              1817.190000 9.410000   0.000000   0.000000   0.000000  
57               1801.250000 10.250000  0.000000   0.000000   0.000000  
58               1803.930000 10.170000  0.000000   0.000000   0.000000  
580              1791.540000 9.960000   0.000000   0.000000   0.000000  
581              1793.560000 9.240000   0.000000   0.000000   0.000000  
582              1794.920000 9.180000   0.000000   0.000000   0.000000  
583              1796.270000 9.430000   0.000000   0.000000   0.000000  
584              1797.630000 10.470000  0.000000   0.000000   0.000000  
59               1806.580000 10.920000  0.000000   0.000000   0.000000  
59A              1806.700000 13.400000  0.000000   0.000000   0.000000  
60               1809.230000 11.370000  0.000000   0.000000   0.000000  
61               1810.600000 12.200000  0.000000   0.000000   0.000000  
618              1792.940000 6.560000   0.000000   0.000000   0.000000  
62               1811.970000 12.530000  0.000000   0.000000   0.000000  
622              1838.110000 14.290000  0.000000   0.000000   0.000000  
623              1840.400000 13.300000  0.000000   0.000000   0.000000  
624              1841.400000 12.100000  0.000000   0.000000   0.000000  
625              1843.690000 11.310000  0.000000   0.000000   0.000000  
626              1846.320000 12.780000  0.000000   0.000000   0.000000  
626A             1848.610000 14.190000  0.000000   0.000000   0.000000  
627              1848.860000 13.940000  0.000000   0.000000   0.000000  
628              1851.400000 14.000000  0.000000   0.000000   0.000000  
63               1813.330000 11.370000  0.000000   0.000000   0.000000  
636              1784.360000 8.540000   0.000000   0.000000   0.000000  
637              1798.640000 8.260000   0.000000   0.000000   0.000000  
638              1799.500000 6.320000   0.000000   0.000000   0.000000  
64               1814.400000 10.700000  0.000000   0.000000   0.000000  
65               1815.050000 11.650000  0.000000   0.000000   0.000000  
66               1815.650000 11.050000  0.000000   0.000000   0.000000  
665              1799.880000 11.570000  0.000000   0.000000   0.000000  
666              1802.040000 11.160000  0.000000   0.000000   0.000000  
667              1804.200000 11.180000  0.000000   0.000000   0.000000  
67               1817.740000 10.160000  0.000000   0.000000   0.000000  
67A              1818.720000 10.780000  0.000000   0.000000   0.000000  
68               1819.120000 10.780000  0.000000   0.000000   0.000000  
689              1771.290000 8.610000   0.000000   0.000000   0.000000  
69               1820.490000 10.610000  0.000000   0.000000   0.000000  
693              1779.930000 9.470000   0.000000   0.000000   0.000000  
694              1770.630000 10.370000  0.000000   0.000000   0.000000  
696              1782.660000 9.240000   0.000000   0.000000   0.000000  
70               1821.860000 10.640000  0.000000   0.000000   0.000000  
704              1771.540000 7.460000   0.000000   0.000000   0.000000  
705              1772.440000 9.260000   0.000000   0.000000   0.000000  
709              1773.260000 7.140000   0.000000   0.000000   0.000000  
71               1823.240000 10.460000  0.000000   0.000000   0.000000  
713              1773.890000 5.310000   0.000000   0.000000   0.000000  
72               1824.770000 11.030000  0.000000   0.000000   0.000000  
72A              1825.310000 11.090000  0.000000   0.000000   0.000000  
72B              1824.370000 9.730000   0.000000   0.000000   0.000000  
73               1826.590000 10.810000  0.000000   0.000000   0.000000  
733              1847.700000 8.400000   0.000000   0.000000   0.000000  
734              1848.500000 8.300000   0.000000   0.000000   0.000000  
735              1849.290000 7.610000   0.000000   0.000000   0.000000  
736              1850.080000 7.220000   0.000000   0.000000   0.000000  
737              1850.880000 7.520000   0.000000   0.000000   0.000000  
738              1852.350000 9.750000   0.000000   0.000000   0.000000  
739              1853.500000 11.500000  0.000000   0.000000   0.000000  
74               1828.580000 10.620000  0.000000   0.000000   0.000000  
744              1859.690000 14.450000  0.000000   0.000000   0.000000  
745              1860.880000 11.020000  0.000000   0.000000   0.000000  
746              1861.620000 10.780000  0.000000   0.000000   0.000000  
75               1830.560000 9.940000   0.000000   0.000000   0.000000  
76               1832.540000 10.060000  0.000000   0.000000   0.000000  
76A              1832.200000 9.900000   0.000000   0.000000   0.000000  
77               1834.520000 10.480000  0.000000   0.000000   0.000000  
77A              1833.600000 10.500000  0.000000   0.000000   0.000000  
78               1836.500000 10.700000  0.000000   0.000000   0.000000  
787              1739.770000 12.530000  0.000000   0.000000   0.000000  
79               1838.490000 10.190000  0.000000   0.000000   0.000000  
790              1742.640000 11.460000  0.000000   0.000000   0.000000  
791              1745.590000 7.910000   0.000000   0.000000   0.000000  
792              1746.630000 6.070000   0.000000   0.000000   0.000000  
795              1735.860000 14.640000  0.000000   0.000000   0.000000  
; Proj C600 MH#23
795-1            1734.540000 14.400000  0.000000   0.000000   0.000000  
796              1736.560000 15.140000  0.000000   0.000000   0.000000  
797              1737.440000 15.460000  0.000000   0.000000   0.000000  
798              1737.690000 16.310000  0.000000   0.000000   0.000000  
799              1738.670000 16.030000  0.000000   0.000000   0.000000  
80               1839.960000 11.040000  0.000000   0.000000   0.000000  
800              1740.700000 12.000000  0.000000   0.000000   0.000000  
800A             1741.180000 11.920000  0.000000   0.000000   0.000000  
801              1742.000000 9.610000   0.000000   0.000000   0.000000  
80A              1841.300000 12.700000  0.000000   0.000000   0.000000  
81               1841.810000 10.190000  0.000000   0.000000   0.000000  
819              1763.840000 6.860000   0.000000   0.000000   0.000000  
82               1843.030000 9.870000   0.000000   0.000000   0.000000  
83               1844.240000 9.460000   0.000000   0.000000   0.000000  
84               1845.150000 8.950000   0.000000   0.000000   0.000000  
84A              1845.470000 8.630000   0.000000   0.000000   0.000000  
85               1846.080000 9.120000   0.000000   0.000000   0.000000  
85A              1846.204000 9.596000   0.000000   0.000000   0.000000  
87               1846.610000 8.790000   0.000000   0.000000   0.000000  
88               1848.400000 8.800000   0.000000   0.000000   0.000000  
89               1850.090000 9.110000   0.000000   0.000000   0.000000  
90               1852.080000 8.620000   0.000000   0.000000   0.000000  
91               1745.880000 13.120000  0.000000   0.000000   0.000000  
92               1746.480000 11.620000  0.000000   0.000000   0.000000  
93               1746.800000 10.500000  0.000000   0.000000   0.000000  
94               1747.140000 9.760000   0.000000   0.000000   0.000000  
94A              1747.660000 8.140000   0.000000   0.000000   0.000000  
95               1747.760000 10.340000  0.000000   0.000000   0.000000  
96               1748.270000 10.430000  0.000000   0.000000   0.000000  
97               1748.780000 10.320000  0.000000   0.000000   0.000000  
98               1749.280000 10.420000  0.000000   0.000000   0.000000  
99               1749.730000 9.470000   0.000000   0.000000   0.000000  
A10              1684.810000 9.490000   0.000000   0.000000   0.000000  
A10A             1685.560000 8.440000   0.000000   0.000000   0.000000  
A10B             1681.500000 9.300000   0.000000   0.000000   0.000000  
A11              1688.880000 8.820000   0.000000   0.000000   0.000000  
A11A             1692.190000 14.110000  0.000000   0.000000   0.000000  
A11B             1693.630000 12.770000  0.000000   0.000000   0.000000  
; Flow Monitor 04
A12              1694.700000 9.000000   0.000000   0.000000   0.000000  
A13              1695.260000 10.140000  0.000000   0.000000   0.000000  
A14              1695.780000 10.820000  0.000000   0.000000   0.000000  
A141             1695.740000 10.160000  0.000000   0.000000   0.000000  
A1410            1724.960000 10.040000  0.000000   0.000000   0.000000  
A1411            1730.080000 9.920000   0.000000   0.000000   0.000000  
A1412            1734.100000 11.300000  0.000000   0.000000   0.000000  
A1413            1740.260000 11.140000  0.000000   0.000000   0.000000  
A1414            1745.300000 10.000000  0.000000   0.000000   0.000000  
A1415            1749.990000 11.910000  0.000000   0.000000   0.000000  
A142             1698.110000 8.890000   0.000000   0.000000   0.000000  
A143             1699.520000 8.480000   0.000000   0.000000   0.000000  
A144             1700.930000 8.670000   0.000000   0.000000   0.000000  