[TITLE]
;;Project Title/Notes

[OPTIONS]
;;Option             Value
FLOW_UNITS           GPM
INFILTRATION         HORTON
FLOW_ROUTING         DYNWAVE
LINK_OFFSETS         DEPTH
MIN_SLOPE            0
ALLOW_PONDING        NO
SKIP_STEADY_STATE    NO

START_DATE           01/01/2002
START_TIME           00:00:00
REPORT_START_DATE    01/01/2002
REPORT_START_TIME    00:00:00
END_DATE             01/01/2002
END_TIME             06:00:00
SWEEP_START          01/01
SWEEP_END            12/31
DRY_DAYS             5.000000
REPORT_STEP          00:05:00
WET_STEP             01:00:00
DRY_STEP             23:00:00
ROUTING_STEP         0:00:30 

INERTIAL_DAMPING     NONE
NORMAL_FLOW_LIMITED  BOTH
FORCE_MAIN_EQUATION  H-W
VARIABLE_STEP        0.75
LENGTHENING_STEP     10
MIN_SURFAREA         12.557
MAX_TRIALS           8
HEAD_TOLERANCE       0.005
SYS_FLOW_TOL         5
LAT_FLOW_TOL         5
MINIMUM_STEP         0
THREADS              1

[EVAPORATION]
;;Data Source    Parameters
;;-------------- ----------------
CONSTANT         0.0
DRY_ONLY         NO

[JUNCTIONS]
;;Name           Elevation  MaxDepth   InitDepth  SurDepth   Aponded   
;;-------------- ---------- ---------- ---------- ---------- ----------
; New Manhole
03CC-004         1773.780000 5.290000   0.000000   0.000000   0.000000  
; New Manhole
03CC-006         1769.520000 5.880000   0.000000   0.000000   0.000000  
; 03CC-010
03CC-010         1767.210000 5.600000   0.000000   0.000000   0.000000  
; 03CC-011
03CC-011         1772.400000 5.270000   0.000000   0.000000   0.000000  
; 04DB-005,
04DB-005         1741.560000 5.640000   0.000000   0.000000   0.000000  
; 04DB-013
04DB-013         1746.900000 5.700000   0.000000   0.000000   0.000000  
; New Manhole
09AA-005         1826.125000 4.875000   0.000000   0.000000   0.000000  
; New Manhole
10BA-004         1781.740000 4.740000   0.000000   0.000000   0.000000  
; New Manhole
10BA-005         1781.470000 5.090000   0.000000   0.000000   0.000000  
; New Manhole
10BA-007         1781.150000 5.290000   0.000000   0.000000   0.000000  
; 10BB-009
10BB-009         1778.750000 5.070000   0.000000   0.000000   0.000000  
; 10BB-012
10BB-012         1776.130000 5.340000   0.000000   0.000000   0.000000  
; New Chamber
12               1732.600000 0.000000   0.000000   1000.000000 0.000000  
; New Manhole
14               1745.620000 6.880000   0.000000   0.000000   0.000000  
; 33CC-001
394              1704.280030 8.559970   0.000000   0.000000   0.000000  
; 5AD-013
395              1764.229980 5.000020   0.000000   0.000000   0.000000  
; 5AD-012
396              1764.330000 4.950000   0.000000   0.000000   0.000000  
; 5AD-011
397              1769.110000 4.700000   0.000000   0.000000   0.000000  
; 5AD-010
398              1769.800000 4.500000   0.000000   0.000000   0.000000  
; 5AD-007
400              1842.920000 6.250000   0.000000   0.000000   0.000000  
; 5AD-006
401              1845.070000 6.250000   0.000000   0.000000   0.000000  
; 5AD-005
402              1852.650000 6.000000   0.000000   0.000000   0.000000  
; 5AD-004
403              1769.949950 9.000050   0.000000   0.000000   0.000000  
; 5AD-003
404              1764.570000 4.790000   0.000000   0.000000   0.000000  
; 5AA-013
405              1711.969970 3.750030   0.000000   0.000000   0.000000  
; 5AA-009
406              1751.589970 4.700030   0.000000   0.000000   0.000000  
; 5AA-008
407              1750.219970 5.100030   0.000000   0.000000   0.000000  
; 5AA-018
408              1745.020020 3.249980   0.000000   0.000000   0.000000  
; 5AA-017
409              1742.030030 7.099970   0.000000   0.000000   0.000000  
; 5AA-003
410              1710.800050 4.749950   0.000000   0.000000   0.000000  
; 5AA-012
411              1713.729980 4.900020   0.000000   0.000000   0.000000  
; 5AC-018
412              1822.770000 8.550000   0.000000   0.000000   0.000000  
; 5AC-013
413              1824.010000 3.750000   0.000000   0.000000   0.000000  
; 5AC-010
414              1826.700000 5.300000   0.000000   0.000000   0.000000  
; 4BD-017
416              1761.349980 6.540020   0.000000   0.000000   0.000000  
; 4BD-014
417              1758.079960 5.300040   0.000000   0.000000   0.000000  
; 4BD-022
418              1772.579960 7.000040   0.000000   0.000000   0.000000  
; 4BD-020
420              1766.150020 5.849980   0.000000   0.000000   0.000000  
; 4BA-006
421              1755.300000 5.500000   0.000000   0.000000   0.000000  
; 4BA-004
422              1724.300000 4.940000   0.000000   0.000000   0.000000  
; 4BA-002
423              1721.229980 7.920020   0.000000   0.000000   0.000000  
; 4BA-007
424              1755.940000 5.100000   0.000000   0.000000   0.000000  
; 4BC-019
425              1761.349980 8.600020   0.000000   0.000000   0.000000  
; 4BC-012
426              1771.030000 5.850000   0.000000   0.000000   0.000000  
; 4BC-011
427              1791.070000 4.350000   0.000000   0.000000   0.000000  
; 4BC-006
428              1777.390000 6.000000   0.000000   0.000000   0.000000  
; 4BC-005
429              1777.400000 6.340000   0.000000   0.000000   0.000000  
; 4BB-028
430              1751.709960 5.400040   0.000000   0.000000   0.000000  
; 4BB-016
431              1750.939940 5.900060   0.000000   0.000000   0.000000  
; 4BB-007
432              1709.800050 4.999950   0.000000   0.000000   0.000000  
; 4BB-006
433              1708.620000 6.000000   0.000000   0.000000   0.000000  
; 4BB-005
434              1708.250000 3.750000   0.000000   0.000000   0.000000  
; 4BB-004
435              1707.449950 6.000050   0.000000   0.000000   0.000000  
; 4BB-003
436              1705.280030 14.399970  0.000000   0.000000   0.000000  
; 4BB-001
437              1701.569950 11.050050  0.000000   0.000000   0.000000  
; 4CD-021
438              1814.209960 6.850040   0.000000   0.000000   0.000000  
; 4CD-019
439              1813.760010 8.649990   0.000000   0.000000   0.000000  
; 4CD-001
440              1813.420040 10.629960  0.000000   0.000000   0.000000  
; 4CA-018
441              1809.050000 5.100000   0.000000   0.000000   0.000000  
; 4CA-017
442              1802.699950 4.400050   0.000000   0.000000   0.000000  
; 4CA-016
443              1799.189940 3.400060   0.000000   0.000000   0.000000  
; 4CA-015
444              1785.109990 4.850010   0.000000   0.000000   0.000000  
; 4CA-010
445              1782.150020 7.499980   0.000000   0.000000   0.000000  
; 4CA-005
446              1784.130000 14.650000  0.000000   0.000000   0.000000  
; 4CC-025
447              1844.630000 9.950000   0.000000   0.000000   0.000000  
; 4CC-007
448              1842.839970 6.700030   0.000000   0.000000   0.000000  
; 4CC-006
449              1837.579960 4.600040   0.000000   0.000000   0.000000  
; 4CC-005
450              1826.270020 5.949980   0.000000   0.000000   0.000000  
; 4CB-029
451              1828.150000 7.950000   0.000000   0.000000   0.000000  
; 4CB-028
452              1830.420040 4.099960   0.000000   0.000000   0.000000  
; 4CB-026
453              1816.839970 5.200030   0.000000   0.000000   0.000000  
; 4CB-025
454              1813.770000 6.250000   0.000000   0.000000   0.000000  
; 4CB-024
455              1812.489990 5.800010   0.000000   0.000000   0.000000  
; 4CB-023
456              1812.199950 6.200050   0.000000   0.000000   0.000000  
; 4CB-013
457              1804.300050 4.049950   0.000000   0.000000   0.000000  
; 4CB-021
458              1800.199950 3.550050   0.000000   0.000000   0.000000  
; 4DD-024
459              1755.940000 5.400000   0.000000   0.000000   0.000000  
; 4DD-023
460              1774.939940 7.600060   0.000000   0.000000   0.000000  
; 4DD-022
461              1771.030030 7.699970   0.000000   0.000000   0.000000  
; 4DD-017
462              1822.680050 4.849950   0.000000   0.000000   0.000000  
; 4DD-008
463              1755.870000 7.900000   0.000000   0.000000   0.000000  
; 4DD-025
466              1765.610000 5.400000   0.000000   0.000000   0.000000  
; 4DD-027
467              1765.170000 5.550000   0.000000   0.000000   0.000000  
; 4DD-026
468              1765.360000 6.400000   0.000000   0.000000   0.000000  
; 4DD-001
469              1759.820000 8.000000   0.000000   0.000000   0.000000  
; 4DC-034
470              1814.750000 4.410000   0.000000   0.000000   0.000000  
; 4DC-026
471              1817.260010 4.449990   0.000000   0.000000   0.000000  
; 4DC-025
472              1816.160030 6.549970   0.000000   0.000000   0.000000  
; 4DC-022
473              1819.719970 4.450030   0.000000   0.000000   0.000000  
; 4DC-016
474              1820.630000 14.250000  0.000000   0.000000   0.000000  
; 4DC-015
475              1820.880000 7.850000   0.000000   0.000000   0.000000  
; 4DC-028
476              1818.800050 5.049950   0.000000   0.000000   0.000000  
; 4DB-002
478              1748.990000 6.000000   0.000000   0.000000   0.000000  
; 4DB-001
479              1749.430000 5.900000   0.000000   0.000000   0.000000  
; 4DB-003
480              1740.000000 6.980000   0.000000   0.000000   0.000000  
; 3CC-007
481              1766.770020 5.399980   0.000000   0.000000   0.000000  
; 3CC-005
482              1766.949950 5.800050   0.000000   0.000000   0.000000  
; 3CC-003
483              1766.890000 5.290000   0.000000   0.000000   0.000000  
; 3CC-002
484              1768.000000 6.000000   0.000000   0.000000   0.000000  
; 3CC-001
485              1772.610000 5.390000   0.000000   0.000000   0.000000  
; 4AC-016
486              1731.890010 5.319990   0.000000   0.000000   0.000000  
; 4AC-020
487              1726.459960 5.900040   0.000000   0.000000   0.000000  
; 4AC-018
488              1726.560060 6.599940   0.000000   0.000000   0.000000  
; 4AC-019
489              1726.510000 6.500000   0.000000   0.000000   0.000000  
; 4AC-009
491              1727.380000 7.480000   0.000000   0.000000   0.000000  
; 4AC-023
492              1729.319950 5.420050   0.000000   0.000000   0.000000  
; 4AC-017
493              1729.160030 4.799970   0.000000   0.000000   0.000000  
; 4AC-002
494              1726.160030 4.249970   0.000000   0.000000   0.000000  
; 4AC-001
495              1726.439940 4.050060   0.000000   0.000000   0.000000  
; 5DA-011
496              1857.240000 7.600000   0.000000   0.000000   0.000000  
; 4CD-025
497              1814.680050 5.179950   0.000000   0.000000   0.000000  
; 4CA-021
498              1809.190000 3.900000   0.000000   0.000000   0.000000  
; 4CD-032
499              1809.400000 2.950000   0.000000   0.000000   0.000000  
; 4CD-028
500              1821.609990 6.750010   0.000000   0.000000   0.000000  
; 4CD-027
501              1852.209960 10.100040  0.000000   0.000000   0.000000  
; 4CC-030
502              1829.640010 8.499990   0.000000   0.000000   0.000000  
; 4CC-029
503              1831.829960 7.900040   0.000000   0.000000   0.000000  
; 4CC-028
504              1839.599980 4.200020   0.000000   0.000000   0.000000  
; 4CD-033
505              1857.550050 3.849950   0.000000   0.000000   0.000000  
; 4CD-029
506              1813.660030 10.299970  0.000000   0.000000   0.000000  
; 4DC-041
507              1814.710000 4.240000   0.000000   0.000000   0.000000  
; 9BB-032
508              1904.480000 7.600000   0.000000   0.000000   0.000000  
; 10CA-011
509              1951.709960 5.000040   0.000000   0.000000   0.000000  
; 10CA-009
510              1904.319950 12.400050  0.000000   0.000000   0.000000  
; 10CA-007
511              1929.969970 6.700030   0.000000   0.000000   0.000000  
; 10CA-005
512              1913.110000 4.700000   0.000000   0.000000   0.000000  
; 10CA-003
513              1913.550000 4.900000   0.000000   0.000000   0.000000  
; 10CA-010
514              1918.010010 9.599990   0.000000   0.000000   0.000000  
; 10DC-008
515              1946.010000 4.350000   0.000000   0.000000   0.000000  
; 10DC-018
516              1957.739990 5.200010   0.000000   0.000000   0.000000  
; 10DB-009
517              1926.959960 4.900040   0.000000   0.000000   0.000000  
; 10DB-008
518              1925.060060 5.699940   0.000000   0.000000   0.000000  
; 10DB-007
519              1915.699950 4.400050   0.000000   0.000000   0.000000  
; 10DB-010
520              1935.790040 4.299960   0.000000   0.000000   0.000000  
; 11CD-015
521              1973.489990 5.890010   0.000000   0.000000   0.000000  
; 11CD-013
522              1962.010010 5.949990   0.000000   0.000000   0.000000  
; 11CD-014
523              1963.099980 6.250020   0.000000   0.000000   0.000000  
; 11CD-007
524              1951.280030 5.209970   0.000000   0.000000   0.000000  
; 11CA-014
526              1900.219970 8.100030   0.000000   0.000000   0.000000  
; 11CA-007
527              1932.770020 11.159980  0.000000   0.000000   0.000000  
; 11CA-006
528              1913.590000 5.300000   0.000000   0.000000   0.000000  
; 11CA-005
529              1908.209960 9.450040   0.000000   0.000000   0.000000  
; 11CC-009
530              1981.109990 5.950010   0.000000   0.000000   0.000000  
; 11CC-006
531              1967.890010 5.449990   0.000000   0.000000   0.000000  
; 11CC-001
532              1954.819950 5.350050   0.000000   0.000000   0.000000  
; 11CB-022
533              1928.449950 5.750050   0.000000   0.000000   0.000000  
; 11CB-021
534              1927.880000 5.690000   0.000000   0.000000   0.000000  
; 11CB-005
535              1941.349980 5.800020   0.000000   0.000000   0.000000  
; 11CB-009
536              1916.390010 5.649990   0.000000   0.000000   0.000000  
; 11DA-002
537              1868.930050 8.099950   0.000000   0.000000   0.000000  
; 11DB-003
538              1857.810060 9.799940   0.000000   0.000000   0.000000  
; 11DB-005
539              1845.219970 9.000030   0.000000   0.000000   0.000000  
; 11DB-001
540              1852.829960 6.300040   0.000000   0.000000   0.000000  
; 15AD-012
541              2057.729980 5.850020   0.000000   0.000000   0.000000  
; 4DC-042
542              1819.410030 4.499970   0.000000   0.000000   0.000000  
; 4CD-031
545              1809.560000 16.450000  0.000000   0.000000   0.000000  
; 4BA-011
547              1724.560060 3.999940   0.000000   0.000000   0.000000  
; 4BA-010
548              1724.560060 4.079940   0.000000   0.000000   0.000000  
; 4AB-003
549              1725.620000 4.250000   0.000000   0.000000   0.000000  
; 4AB-004
550              1725.310000 5.150000   0.000000   0.000000   0.000000  
; 4BA-012
551              1724.430000 5.000000   0.000000   0.000000   0.000000  
; Pump Station
552              1732.600000 2.260000   0.000000   1000.000000 0.000000  
; 9AA-032
553              1826.670040 7.249960   0.000000   0.000000   0.000000  
; 3CC-008
554              1769.000000 6.220000   0.000000   0.000000   0.000000  
; 9DB-025
555              1948.040000 8.600000   0.000000   0.000000   0.000000  
; 9DA-015
556              1964.610000 12.890000  0.000000   0.000000   0.000000  
; 10CC-021
557              1975.340000 7.000000   0.000000   0.000000   0.000000  
; 10CC-018
558              1977.370000 6.500000   0.000000   0.000000   0.000000  
; 9AD-017
559              1883.930000 7.000000   0.000000   0.000000   0.000000  
; 9AD-015
560              1882.220000 7.740000   0.000000   0.000000   0.000000  
; 9AD-005
561              1893.660030 10.449970  0.000000   0.000000   0.000000  
; 9AA-027
562              1870.479980 2.550020   0.000000   0.000000   0.000000  
; 9AA-022
563              1859.319950 5.400050   0.000000   0.000000   0.000000  
; 9AA-021
564              1838.300050 5.499950   0.000000   0.000000   0.000000  
; 9AA-020
565              1834.890010 5.399990   0.000000   0.000000   0.000000  
; 9AA-019
566              1829.930050 5.219950   0.000000   0.000000   0.000000  
; 9AA-018
567              1828.819950 4.900050   0.000000   0.000000   0.000000  
; 9AA-016
568              1824.449950 4.280050   0.000000   0.000000   0.000000  
; 9AA-015
569              1825.430050 3.299950   0.000000   0.000000   0.000000  
; 9AA-008
570              1871.079960 2.020040   0.000000   0.000000   0.000000  
; 9AA-011
571              1828.060060 7.349940   0.000000   0.000000   0.000000  
; 9AA-004
572              1827.880000 7.150000   0.000000   0.000000   0.000000  
; 9AA-017
573              1812.630000 10.550000  0.000000   0.000000   0.000000  
; 9AC-043
574              1926.730000 6.430000   0.000000   0.000000   0.000000  
; 9AC-042
575              1883.800000 8.000000   0.000000   0.000000   0.000000  
; 9AC-041
576              1885.000000 7.000000   0.000000   0.000000   0.000000  
; 9AC-040
577              1901.710000 5.700000   0.000000   0.000000   0.000000  
; 9AC-035
578              1910.540000 8.420000   0.000000   0.000000   0.000000  
; 9AC-034
579              1914.970000 5.180000   0.000000   0.000000   0.000000  
; 9AC-032
580              1949.720000 6.200000   0.000000   0.000000   0.000000  
; 9AB-015
581              1867.750000 7.000000   0.000000   0.000000   0.000000  
; 9AB-013
582              1866.680000 5.640000   0.000000   0.000000   0.000000  
; 9BD-022
583              1917.740000 4.650000   0.000000   0.000000   0.000000  
; 9BD-021
584              1921.440000 8.800000   0.000000   0.000000   0.000000  
; 9BD-020
585              1922.510000 8.270000   0.000000   0.000000   0.000000  
; 9BD-019
586              1932.270000 3.730000   0.000000   0.000000   0.000000  
; 9BD-014
587              1945.730000 4.300000   0.000000   0.000000   0.000000  
; 9BD-010
588              1937.835000 2.165000   0.000000   0.000000   0.000000  
; 9BA-012
589              1862.550000 9.680000   0.000000   0.000000   0.000000  
; 9BA-011
590              1861.560060 9.499940   0.000000   0.000000   0.000000  
; 9BA-010
591              1860.479980 8.900020   0.000000   0.000000   0.000000  
; 9BA-009
592              1859.459960 7.890040   0.000000   0.000000   0.000000  
; 9BA-001
593              1863.620000 9.720000   0.000000   0.000000   0.000000  
; 9BB-024
594              1882.550050 3.949950   0.000000   0.000000   0.000000  
; 9BB-022
595              1886.160030 4.649970   0.000000   0.000000   0.000000  
; 9BB-021
596              1877.699950 8.800050   0.000000   0.000000   0.000000  
; 9BB-017
597              1853.699950 11.300050  0.000000   0.000000   0.000000  
; 9BB-014
598              1873.699950 7.590050   0.000000   0.000000   0.000000  
; 9BB-013
599              1895.510000 6.200000   0.000000   0.000000   0.000000  
; ModelingPurposeManhole
6                1731.000000 17.000000  0.000000   0.000000   0.000000  
; 9AD-029
600              1879.870000 10.050000  0.000000   0.000000   0.000000  
; 9AD-027
601              1873.239990 8.200010   0.000000   0.000000   0.000000  
; 9AD-026
602              1867.359990 10.480010  0.000000   0.000000   0.000000  
; 9AD-025
603              1876.620000 8.450000   0.000000   0.000000   0.000000  
; 9AD-020
604              1897.240000 6.740000   0.000000   0.000000   0.000000  
; 9AB-012
605              1865.660030 8.449970   0.000000   0.000000   0.000000  
; 9AB-001
606              1864.680050 10.819950  0.000000   0.000000   0.000000  
; 10BD-024
607              1877.590000 5.300000   0.000000   0.000000   0.000000  
; 10BD-023
608              1894.420000 6.550000   0.000000   0.000000   0.000000  
; 10BD-014
609              1865.160030 4.949970   0.000000   0.000000   0.000000  
; 10BD-013
610              1875.060060 6.819940   0.000000   0.000000   0.000000  
; 10BD-021
611              1894.550000 6.400000   0.000000   0.000000   0.000000  
; 10BD-006
612              1894.970000 5.860000   0.000000   0.000000   0.000000  
; 10BD-005
613              1898.690000 9.310000   0.000000   0.000000   0.000000  
; 10BA-023
614              1846.450000 5.480000   0.000000   0.000000   0.000000  
; 10BA-014
615              1856.120000 5.280000   0.000000   0.000000   0.000000  
; 10BA-022
616              1845.930000 4.080000   0.000000   0.000000   0.000000  
; 10BA-018
617              1848.240000 5.450000   0.000000   0.000000   0.000000  
; 10BA-006
618              1825.120000 3.920000   0.000000   0.000000   0.000000  
; 10BA-021
619              1781.950000 5.590000   0.000000   0.000000   0.000000  
; 10BA-020
620              1784.359990 4.200010   0.000000   0.000000   0.000000  
; 10BA-003
621              1787.829960 4.230040   0.000000   0.000000   0.000000  
; 10BA-002
622              1790.329960 4.100040   0.000000   0.000000   0.000000  
; 10BC-040
623              1872.750000 10.200000  0.000000   0.000000   0.000000  
; 10BC-039
624              1871.810000 10.100000  0.000000   0.000000   0.000000  
; 10BC-021
626              1891.420040 8.649960   0.000000   0.000000   0.000000  
; 10BC-020
627              1892.599980 7.000020   0.000000   0.000000   0.000000  
; 10BC-011
628              1892.979980 5.050020   0.000000   0.000000   0.000000  
; 10BC-010
629              1889.880000 5.500000   0.000000   0.000000   0.000000  
; 10BC-009
630              1886.599980 6.950020   0.000000   0.000000   0.000000  
; 10BC-008
631              1885.699950 7.900050   0.000000   0.000000   0.000000  
; 10BC-023
632              1889.130000 8.800000   0.000000   0.000000   0.000000  
; 10BC-024
633              1891.310060 8.799940   0.000000   0.000000   0.000000  
; 10BB-003
634              1776.280030 7.389970   0.000000   0.000000   0.000000  
; 10AD-004
635              1808.650020 5.499980   0.000000   0.000000   0.000000  
; 10AD-005
636              1806.940000 7.060000   0.000000   0.000000   0.000000  
; 10AC-005
637              1803.130000 7.300000   0.000000   0.000000   0.000000  
; 10AC-004
638              1895.520020 6.499980   0.000000   0.000000   0.000000  
; 10AC-003
639              1879.300050 5.699950   0.000000   0.000000   0.000000  
; 10AC-002
640              1877.979980 7.020020   0.000000   0.000000   0.000000  
; 10AB-003
641              1801.500000 6.350000   0.000000   0.000000   0.000000  
; 10AB-002
642              1800.290040 7.799960   0.000000   0.000000   0.000000  
; 10AB-001
643              1798.650000 3.690000   0.000000   0.000000   0.000000  
; 11BD-015
644              1824.189940 4.900060   0.000000   0.000000   0.000000  
; 11BD-010
645              1820.630000 3.400000   0.000000   0.000000   0.000000  
; 11BD-009
646              1818.719970 3.700030   0.000000   0.000000   0.000000  
; 11BD-006
647              1893.180050 9.099950   0.000000   0.000000   0.000000  
; 11BD-013
648              1894.589970 6.650030   0.000000   0.000000   0.000000  
; 11BD-004
649              1866.550000 6.520000   0.000000   0.000000   0.000000  
; 11BD-003
650              1882.950000 5.650000   0.000000   0.000000   0.000000  
; 11BC-008
651              1811.880000 5.950000   0.000000   0.000000   0.000000  
; 11BC-006
652              1814.239990 8.700010   0.000000   0.000000   0.000000  
; 11BC-005
653              1814.220000 6.040000   0.000000   0.000000   0.000000  
; 11BC-002
654              1814.230000 5.770000   0.000000   0.000000   0.000000  
; 11BC-004
655              1907.300050 5.249950   0.000000   0.000000   0.000000  
; 11AC-002
656              1828.099980 5.850020   0.000000   0.000000   0.000000  
; 11AC-011
657              1833.199950 8.200050   0.000000   0.000000   0.000000  
; 9DA-003
658              1956.585000 6.415000   0.000000   0.000000   0.000000  
; 9DB-021
659              1940.270000 9.650000   0.000000   0.000000   0.000000  
; 9DB-020
660              1944.250000 9.400000   0.000000   0.000000   0.000000  
; 9DB-015
661              1966.690000 5.250000   0.000000   0.000000   0.000000  
; 9DB-017
662              1978.700000 5.700000   0.000000   0.000000   0.000000  
; 9DB-016
663              1997.070000 4.050000   0.000000   0.000000   0.000000  
; 10CD-013
664              1952.910030 3.199970   0.000000   0.000000   0.000000  
; 10CD-012
665              1967.130000 4.500000   0.000000   0.000000   0.000000  
; 10CD-011
666              1983.430000 4.250000   0.000000   0.000000   0.000000  
; 10CD-005
667              1990.000000 10.720000  0.000000   0.000000   0.000000  
; 10CD-004
668              1992.000000 8.770000   0.000000   0.000000   0.000000  
; 10CA-012
669              1912.900000 4.600000   0.000000   0.000000   0.000000  
; 11BC-009
670              1841.210000 9.400000   0.000000   0.000000   0.000000  
; 11BD-016
671              1843.350000 14.650000  0.000000   0.000000   0.000000  
; 11BD-017
672              1845.980000 5.910000   0.000000   0.000000   0.000000  
; 11BD-001
673              1855.990000 5.100000   0.000000   0.000000   0.000000  
; 4DB-014
674              1739.020000 3.900000   0.000000   0.000000   0.000000  
; 15AD-011
675              2061.250000 5.450000   0.000000   0.000000   0.000000  
; 15AD-010
676              2065.810060 4.549940   0.000000   0.000000   0.000000  
; 15AD-002
677              2072.219970 3.750030   0.000000   0.000000   0.000000  
; 15AD-001
678              2078.469970 4.020030   0.000000   0.000000   0.000000  
; 15AB-025
679              2052.709960 5.150040   0.000000   0.000000   0.000000  
; 14CA-007
680              2132.520020 5.449980   0.000000   0.000000   0.000000  
; 15AB-013
681              1990.630000 5.100000   0.000000   0.000000   0.000000  
; 15AB-029
682              2043.250000 3.500000   0.000000   0.000000   0.000000  
; 15AB-026
683              2046.890010 3.749990   0.000000   0.000000   0.000000  
; 14BA-019
684              2030.020020 5.779980   0.000000   0.000000   0.000000  
; 14BA-010
685              1983.360000 8.560000   0.000000   0.000000   0.000000  
; 14BA-005
686              2029.479980 5.860020   0.000000   0.000000   0.000000  
; 14BA-020
687              2027.390010 6.819990   0.000000   0.000000   0.000000  
; 14BA-014
688              1994.580000 6.220000   0.000000   0.000000   0.000000  
; 14BA-012
689              2015.520020 5.679980   0.000000   0.000000   0.000000  
; 14BA-013
690              2004.189940 6.520060   0.000000   0.000000   0.000000  
; 14BC-017
691              2100.469970 4.200030   0.000000   0.000000   0.000000  
; 14BC-015
692              2094.649900 5.750100   0.000000   0.000000   0.000000  
; 14BC-014
693              2061.419920 5.950080   0.000000   0.000000   0.000000  
; 14BC-012
694              2083.340090 7.799910   0.000000   0.000000   0.000000  
; 14BC-004
695              2079.189940 5.350060   0.000000   0.000000   0.000000  
; 14BC-002
696              2043.120000 4.700000   0.000000   0.000000   0.000000  
; 14BB-019
697              1988.180050 9.499950   0.000000   0.000000   0.000000  
; 14BB-016
698              1989.680050 10.499950  0.000000   0.000000   0.000000  
; 14BB-007
699              2027.010010 5.399990   0.000000   0.000000   0.000000  
; 14BB-006
700              2004.420040 6.399960   0.000000   0.000000   0.000000  
; 14BB-005
701              1998.479980 6.700020   0.000000   0.000000   0.000000  
; 14BB-003
702              2003.260010 6.399990   0.000000   0.000000   0.000000  
; 14CA-018
703              2141.189940 5.200060   0.000000   0.000000   0.000000  
; 14CB-027
704              2111.439940 5.100060   0.000000   0.000000   0.000000  
; 14CB-009
705              2124.010010 5.949990   0.000000   0.000000   0.000000  
; 14CB-008
706              2111.000000 6.280000   0.000000   0.000000   0.000000  
; 5AC-021
709              1831.620000 7.400000   0.000000   0.000000   0.000000  
; 5AA-021
710              1719.949950 3.400050   0.000000   0.000000   0.000000  
; 4BC-033
711              1760.970000 7.760000   0.000000   0.000000   0.000000  
; 4BC-034
712              1760.480000 7.740000   0.000000   0.000000   0.000000  
; 4BC-035,  + spring inflow
713              1772.820000 7.180000   0.000000   0.000000   0.000000  
; 4BC-032
714              1774.790000 4.210000   0.000000   0.000000   0.000000  
; 4BB-034
715              1748.180000 6.800000   0.000000   0.000000   0.000000  
; 4BB-037
716              1745.520000 6.900000   0.000000   0.000000   0.000000  
; 4BB-035
717              1704.590000 10.600000  0.000000   0.000000   0.000000  
; 9BB-033
718              1877.020020 5.849980   0.000000   0.000000   0.000000  
; 4BB-036
719              1758.550000 8.200000   0.000000   0.000000   0.000000  
; 4BB-040
720              1758.290000 8.600000   0.000000   0.000000   0.000000  
; 33CC-003
721              1704.280030 8.719970   0.000000   0.000000   0.000000  
; 33CC-005
722              1706.469970 6.370030   0.000000   0.000000   0.000000  
; 33CC-007
723              1707.579960 4.450040   0.000000   0.000000   0.000000  
; 33CC-004
724              1705.370000 7.630000   0.000000   0.000000   0.000000  
; 4BA-009
725              1711.410000 7.530000   0.000000   0.000000   0.000000  
; 4BA-020
726              1711.729980 6.750020   0.000000   0.000000   0.000000  
; 4BA-019
727              1714.410000 6.610000   0.000000   0.000000   0.000000  
; 4BA-018
728              1713.360000 9.650000   0.000000   0.000000   0.000000  
; 4BA-017
729              1716.510010 6.699990   0.000000   0.000000   0.000000  
; 4BA-016
730              1719.209960 6.000040   0.000000   0.000000   0.000000  
; 4AB-001
731              1725.040000 4.750000   0.000000   0.000000   0.000000  
; 4AB-002
732              1725.260010 5.049990   0.000000   0.000000   0.000000  
; 4BA-015
733              1724.640000 4.200000   0.000000   0.000000   0.000000  
; 4BA-014
734              1722.530030 7.299970   0.000000   0.000000   0.000000  
; 4BA-021
735              1751.459960 4.550040   0.000000   0.000000   0.000000  
; 4BA-013
736              1749.949950 5.750050   0.000000   0.000000   0.000000  
; Ashland Creek LS