[TITLE]
;;Project Title/Notes

[OPTIONS]
;;Option             Value
FLOW_UNITS           CFS
INFILTRATION         HORTON
FLOW_ROUTING         DYNWAVE
LINK_OFFSETS         DEPTH
MIN_SLOPE            0
ALLOW_PONDING        NO
SKIP_STEADY_STATE    NO

START_DATE           01/01/2002
START_TIME           00:00:00
REPORT_START_DATE    01/01/2002
REPORT_START_TIME    00:00:00
END_DATE             01/01/2002
END_TIME             00:00:00
SWEEP_START          01/01
SWEEP_END            12/31
DRY_DAYS             5.000000
REPORT_STEP          00:05:00
WET_STEP             01:00:00
DRY_STEP             23:00:00
ROUTING_STEP         0:05:00 

INERTIAL_DAMPING     NONE
NORMAL_FLOW_LIMITED  BOTH
FORCE_MAIN_EQUATION  H-W
VARIABLE_STEP        0.75
LENGTHENING_STEP     0
MIN_SURFAREA         0
MAX_TRIALS           0
HEAD_TOLERANCE       0
SYS_FLOW_TOL         5
LAT_FLOW_TOL         5
MINIMUM_STEP         0.5
THREADS              1

[EVAPORATION]
;;Data Source    Parameters
;;-------------- ----------------
CONSTANT         0.0
DRY_ONLY         NO

[JUNCTIONS]
;;Name           Elevation  MaxDepth   InitDepth  SurDepth   Aponded   
;;-------------- ---------- ---------- ---------- ---------- ----------
; New Manhole
0                0.000000   0.000000   0.000000   0.000000   0.000000  
; New Manhole
1                0.000000   0.000000   0.000000   0.000000   0.000000  
; New Manhole
10               0.000000   0.000000   0.000000   0.000000   0.000000  
; New Manhole
100              0.000000   0.000000   0.000000   0.000000   0.000000  
; New Manhole
1000             0.000000   0.000000   0.000000   0.000000   0.000000  
; New Manhole
1002             0.000000   0.000000   0.000000   0.000000   0.000000  
; New Manhole
1004             0.000000   0.000000   0.000000   0.000000   0.000000  
; New Manhole
1006             0.000000   0.000000   0.000000   0.000000   0.000000  
; New Manhole
1008             0.000000   0.000000   0.000000   0.000000   0.000000  
; New Manhole
101              0.000000   0.000000   0.000000   0.000000   0.000000  
; New Manhole
1010             0.000000   0.000000   0.000000   0.000000   0.000000  
; New Manhole
1012             0.000000   0.000000   0.000000   0.000000   0.000000  
; New Manhole
1014             0.000000   0.000000   0.000000   0.000000   0.000000  
; New Manhole
1016             0.000000   0.000000   0.000000   0.000000   0.000000  
; New Manhole
1018             0.000000   0.000000   0.000000   0.000000   0.000000  
; New Manhole
102              0.000000   0.000000   0.000000   0.000000   0.000000  
; New Manhole
1020             0.000000   0.000000   0.000000   0.000000   0.000000  
; New Manhole
1022             0.000000   0.000000   0.000000   0.000000   0.000000  
; New Manhole
1024             0.000000   0.000000   0.000000   0.000000   0.000000  
; New Manhole
1026             0.000000   0.000000   0.000000   0.000000   0.000000  
; New Manhole
1028             0.000000   0.000000   0.000000   0.000000   0.000000  
; New Manhole
103              0.000000   0.000000   0.000000   0.000000   0.000000  
; New Manhole
1030             0.000000   0.000000   0.000000   0.000000   0.000000  
; New Manhole
1032             0.000000   0.000000   0.000000   0.000000   0.000000  
; New Manhole
1034             0.000000   0.000000   0.000000   0.000000   0.000000  
; New Manhole
1036             0.000000   0.000000   0.000000   0.000000   0.000000  
; New Manhole
1038             0.000000   0.000000   0.000000   0.000000   0.000000  
; New Manhole
104              0.000000   0.000000   0.000000   0.000000   0.000000  
; New Manhole
1040             0.000000   0.000000   0.000000   0.000000   0.000000  
; New Manhole
1042             0.000000   0.000000   0.000000   0.000000   0.000000  
; New Manhole
1044             0.000000   0.000000   0.000000   0.000000   0.000000  
; New Manhole
1046             0.000000   0.000000   0.000000   0.000000   0.000000  
; New Manhole
1048             0.000000   0.000000   0.000000   0.000000   0.000000  
; New Manhole
105              0.000000   0.000000   0.000000   0.000000   0.000000  
; New Manhole
1050             0.000000   0.000000   0.000000   0.000000   0.000000  
; New Manhole
1052             0.000000   0.000000   0.000000   0.000000   0.000000  
; New Manhole
1054             0.000000   0.000000   0.000000   0.000000   0.000000  
; New Manhole
1056             0.000000   0.000000   0.000000   0.000000   0.000000  
; New Manhole
1058             0.000000   0.000000   0.000000   0.000000   0.000000  
; New Manhole
106              0.000000   0.000000   0.000000   0.000000   0.000000  
; New Manhole
1060             0.000000   0.000000   0.000000   0.000000   0.000000  
; New Manhole
1062             0.000000   0.000000   0.000000   0.000000   0.000000  
; New Manhole
107              0.000000   0.000000   0.000000   0.000000   0.000000  
; New Manhole
108              0.000000   0.000000   0.000000   0.000000   0.000000  
; New Manhole
109              0.000000   0.000000   0.000000   0.000000   0.000000  
; New Manhole
11               0.000000   0.000000   0.000000   0.000000   0.000000  
; New Manhole
110              0.000000   0.000000   0.000000   0.000000   0.000000  
; New Manhole
111              0.000000   0.000000   0.000000   0.000000   0.000000  
; New Manhole
112              0.000000   0.000000   0.000000   0.000000   0.000000  
; New Manhole
113              0.000000   0.000000   0.000000   0.000000   0.000000  
; New Manhole
114              0.000000   0.000000   0.000000   0.000000   0.000000  
; New Manhole
115              0.000000   0.000000   0.000000   0.000000   0.000000  
; New Manhole
116              0.000000   0.000000   0.000000   0.000000   0.000000  
; New Manhole
117              0.000000   0.000000   0.000000   0.000000   0.000000  
; New Manhole
118              0.000000   0.000000   0.000000   0.000000   0.000000  
; New Manhole
119              0.000000   0.000000   0.000000   0.000000   0.000000  
; New Manhole
12               0.000000   0.000000   0.000000   0.000000   0.000000  
; New Manhole
120              0.000000   0.000000   0.000000   0.000000   0.000000  
; New Manhole
121              0.000000   0.000000   0.000000   0.000000   0.000000  
; New Manhole
122              0.000000   0.000000   0.000000   0.000000   0.000000  
; New Manhole
123              0.000000   0.000000   0.000000   0.000000   0.000000  
; New Manhole
124              0.000000   0.000000   0.000000   0.000000   0.000000  
; New Manhole
125              0.000000   0.000000   0.000000   0.000000   0.000000  
; New Manhole
126              0.000000   0.000000   0.000000   0.000000   0.000000  
; New Manhole
127              0.000000   0.000000   0.000000   0.000000   0.000000  
; New Manhole
128              0.000000   0.000000   0.000000   0.000000   0.000000  
; New Manhole
129              0.000000   0.000000   0.000000   0.000000   0.000000  
; New Manhole
13               0.000000   0.000000   0.000000   0.000000   0.000000  
; New Manhole
130              0.000000   0.000000   0.000000   0.000000   0.000000  
; New Manhole
131              0.000000   0.000000   0.000000   0.000000   0.000000  
; New Manhole
132              0.000000   0.000000   0.000000   0.000000   0.000000  
; New Manhole
133              0.000000   0.000000   0.000000   0.000000   0.000000  
; New Manhole
134              0.000000   0.000000   0.000000   0.000000   0.000000  
; New Manhole
135              0.000000   0.000000   0.000000   0.000000   0.000000  
; New Manhole
136              0.000000   0.000000   0.000000   0.000000   0.000000  
; New Manhole
137              0.000000   0.000000   0.000000   0.000000   0.000000  
; New Manhole
138              0.000000   0.000000   0.000000   0.000000   0.000000  
; New Manhole
139              0.000000   0.000000   0.000000   0.000000   0.000000  
; New Manhole
14               0.000000   0.000000   0.000000   0.000000   0.000000  
; New Manhole
140              0.000000   0.000000   0.000000   0.000000   0.000000  
; New Manhole
141              0.000000   0.000000   0.000000   0.000000   0.000000  
; New Manhole
142              0.000000   0.000000   0.000000   0.000000   0.000000  
; New Manhole
143              0.000000   0.000000   0.000000   0.000000   0.000000  
; New Manhole
144              0.000000   0.000000   0.000000   0.000000   0.000000  
; New Manhole
145              0.000000   0.000000   0.000000   0.000000   0.000000  
; New Manhole
146              0.000000   0.000000   0.000000   0.000000   0.000000  
; New Manhole
147              0.000000   0.000000   0.000000   0.000000   0.000000  
; New Manhole
148              0.000000   0.000000   0.000000   0.000000   0.000000  
; New Manhole
149              0.000000   0.000000   0.000000   0.000000   0.000000  
; New Manhole
15               0.000000   0.000000   0.000000   0.000000   0.000000  
; New Manhole
150              0.000000   0.000000   0.000000   0.000000   0.000000  
; New Manhole
151              0.000000   0.000000   0.000000   0.000000   0.000000  
; New Manhole
152              0.000000   0.000000   0.000000   0.000000   0.000000  
; New Manhole
153              0.000000   0.000000   0.000000   0.000000   0.000000  
; New Manhole
154              0.000000   0.000000   0.000000   0.000000   0.000000  
; New Manhole
155              0.000000   0.000000   0.000000   0.000000   0.000000  
; New Manhole
156              0.000000   0.000000   0.000000   0.000000   0.000000  
; New Manhole
157              0.000000   0.000000   0.000000   0.000000   0.000000  
; New Manhole
158              0.000000   0.000000   0.000000   0.000000   0.000000  
; New Manhole
159              0.000000   0.000000   0.000000   0.000000   0.000000  
; New Manhole
16               0.000000   0.000000   0.000000   0.000000   0.000000  
; New Manhole
160              0.000000   0.000000   0.000000   0.000000   0.000000  
; New Manhole
161              0.000000   0.000000   0.000000   0.000000   0.000000  
; New Manhole
162              0.000000   0.000000   0.000000   0.000000   0.000000  
; New Manhole
163              0.000000   0.000000   0.000000   0.000000   0.000000  
; New Manhole
164              0.000000   0.000000   0.000000   0.000000   0.000000  
; New Manhole
165              0.000000   0.000000   0.000000   0.000000   0.000000  
; New Manhole
166              0.000000   0.000000   0.000000   0.000000   0.000000  
; New Manhole
167              0.000000   0.000000   0.000000   0.000000   0.000000  
; New Manhole
168              0.000000   0.000000   0.000000   0.000000   0.000000  
; New Manhole
169              0.000000   0.000000   0.000000   0.000000   0.000000  
; New Manhole
17               0.000000   0.000000   0.000000   0.000000   0.000000  
; New Manhole
170              0.000000   0.000000   0.000000   0.000000   0.000000  
; New Manhole
171              0.000000   0.000000   0.000000   0.000000   0.000000  
; New Manhole
172              0.000000   0.000000   0.000000   0.000000   0.000000  
; New Manhole
173              0.000000   0.000000   0.000000   0.000000   0.000000  
; New Manhole
174              0.000000   0.000000   0.000000   0.000000   0.000000  
; New Manhole
175              0.000000   0.000000   0.000000   0.000000   0.000000  
; New Manhole
176              0.000000   0.000000   0.000000   0.000000   0.000000  
; New Manhole
177              0.000000   0.000000   0.000000   0.000000   0.000000  
; New Manhole
178              0.000000   0.000000   0.000000   0.000000   0.000000  
; New Manhole
179              0.000000   0.000000   0.000000   0.000000   0.000000  
; New Manhole
18               0.000000   0.000000   0.000000   0.000000   0.000000  
; New Manhole
180              0.000000   0.000000   0.000000   0.000000   0.000000  
; New Manhole
181              0.000000   0.000000   0.000000   0.000000   0.000000  
; New Manhole
182              0.000000   0.000000   0.000000   0.000000   0.000000  
; New Manhole
183              0.000000   0.000000   0.000000   0.000000   0.000000  
; New Manhole
184              0.000000   0.000000   0.000000   0.000000   0.000000  
; New Manhole
185              0.000000   0.000000   0.000000   0.000000   0.000000  
; New Manhole
186              0.000000   0.000000   0.000000   0.000000   0.000000  
; New Manhole
187              0.000000   0.000000   0.000000   0.000000   0.000000  
; New Manhole
188              0.000000   0.000000   0.000000   0.000000   0.000000  
; New Manhole
189              0.000000   0.000000   0.000000   0.000000   0.000000  
; New Manhole
19               0.000000   0.000000   0.000000   0.000000   0.000000  
; New Manhole
190              0.000000   0.000000   0.000000   0.000000   0.000000  
; New Manhole
191              0.000000   0.000000   0.000000   0.000000   0.000000  
; New Manhole
192              0.000000   0.000000   0.000000   0.000000   0.000000  
; New Manhole
193              0.000000   0.000000   0.000000   0.000000   0.000000  
; New Manhole
194              0.000000   0.000000   0.000000   0.000000   0.000000  
; New Manhole
195              0.000000   0.000000   0.000000   0.000000   0.000000  
; New Manhole
196              0.000000   0.000000   0.000000   0.000000   0.000000  
; New Manhole
197              0.000000   0.000000   0.000000   0.000000   0.000000  
; New Manhole
198              0.000000   0.000000   0.000000   0.000000   0.000000  
; New Manhole
199              0.000000   0.000000   0.000000   0.000000   0.000000  
; New Manhole
2                0.000000   0.000000   0.000000   0.000000   0.000000  
; New Manhole
20               0.000000   0.000000   0.000000   0.000000   0.000000  
; New Manhole
200              0.000000   0.000000   0.000000   0.000000   0.000000  
; New Manhole
201              0.000000   0.000000   0.000000   0.000000   0.000000  
; New Manhole
202              0.000000   0.000000   0.000000   0.000000   0.000000  
; New Manhole
203              0.000000   0.000000   0.000000   0.000000   0.000000  
; New Manhole
204              0.000000   0.000000   0.000000   0.000000   0.000000  
; New Manhole
205              0.000000   0.000000   0.000000   0.000000   0.000000  
; New Manhole
206              0.000000   0.000000   0.000000   0.000000   0.000000  
; New Manhole
207              0.000000   0.000000   0.000000   0.000000   0.000000  
; New Manhole
208              0.000000   0.000000   0.000000   0.000000   0.000000  
; New Manhole
209              0.000000   0.000000   0.000000   0.000000   0.000000  
; New Manhole
21               0.000000   0.000000   0.000000   0.000000   0.000000  
; New Manhole
210              0.000000   0.000000   0.000000   0.000000   0.000000  
; New Manhole
211              0.000000   0.000000   0.000000   0.000000   0.000000  
; New Manhole
212              0.000000   0.000000   0.000000   0.000000   0.000000  
; New Manhole
213              0.000000   0.000000   0.000000   0.000000   0.000000  
; New Manhole
214              0.000000   0.000000   0.000000   0.000000   0.000000  
; New Manhole
215              0.000000   0.000000   0.000000   0.000000   0.000000  
; New Manhole
216              0.000000   0.000000   0.000000   0.000000   0.000000  
; New Manhole
217              0.000000   0.000000   0.000000   0.000000   0.000000  
; New Manhole
218              0.000000   0.000000   0.000000   0.000000   0.000000  
; New Manhole
219              0.000000   0.000000   0.000000   0.000000   0.000000  
; New Manhole
22               0.000000   0.000000   0.000000   0.000000   0.000000  
; New Manhole
220              0.000000   0.000000   0.000000   0.000000   0.000000  
; New Manhole
221              0.000000   0.000000   0.000000   0.000000   0.000000  
; New Manhole
222              0.000000   0.000000   0.000000   0.000000   0.000000  
; New Manhole
223              0.000000   0.000000   0.000000   0.000000   0.000000  
; New Manhole
224              0.000000   0.000000   0.000000   0.000000   0.000000  
; New Manhole
225              0.000000   0.000000   0.000000   0.000000   0.000000  
; New Manhole
226              0.000000   0.000000   0.000000   0.000000   0.000000  
; New Manhole
227              0.000000   0.000000   0.000000   0.000000   0.000000  
; New Manhole
228              0.000000   0.000000   0.000000   0.000000   0.000000  
; New Manhole
229              0.000000   0.000000   0.000000   0.000000   0.000000  
; New Manhole
23               0.000000   0.000000   0.000000   0.000000   0.000000  
; New Manhole
230              0.000000   0.000000   0.000000   0.000000   0.000000  
; New Manhole
231              0.000000   0.000000   0.000000   0.000000   0.000000  
; New Manhole
232              0.000000   0.000000   0.000000   0.000000   0.000000  
; New Manhole
233              0.000000   0.000000   0.000000   0.000000   0.000000  
; New Manhole
234              0.000000   0.000000   0.000000   0.000000   0.000000  
; New Manhole
235              0.000000   0.000000   0.000000   0.000000   0.000000  
; New Manhole
236              0.000000   0.000000   0.000000   0.000000   0.000000  
; New Manhole
237              0.000000   0.000000   0.000000   0.000000   0.000000  
; New Manhole
238              0.000000   0.000000   0.000000   0.000000   0.000000  
; New Manhole
239              0.000000   0.000000   0.000000   0.000000   0.000000  
; New Manhole
24               0.000000   0.000000   0.000000   0.000000   0.000000  
; New Manhole
240              0.000000   0.000000   0.000000   0.000000   0.000000  
; New Manhole
241              0.000000   0.000000   0.000000   0.000000   0.000000  
; New Manhole
242              0.000000   0.000000   0.000000   0.000000   0.000000  
; New Manhole
243              0.000000   0.000000   0.000000   0.000000   0.000000  
; New Manhole
244              0.000000   0.000000   0.000000   0.000000   0.000000  
; New Manhole
245              0.000000   0.000000   0.000000   0.000000   0.000000  
; New Manhole
246              0.000000   0.000000   0.000000   0.000000   0.000000  
; New Manhole
247              0.000000   0.000000   0.000000   0.000000   0.000000  
; New Manhole
248              0.000000   0.000000   0.000000   0.000000   0.000000  
; New Manhole
249              0.000000   0.000000   0.000000   0.000000   0.000000  
; New Manhole
25               0.000000   0.000000   0.000000   0.000000   0.000000  
; New Manhole
250              0.000000   0.000000   0.000000   0.000000   0.000000  
; New Manhole
251              0.000000   0.000000   0.000000   0.000000   0.000000  
; New Manhole
252              0.000000   0.000000   0.000000   0.000000   0.000000  
; New Manhole
253              0.000000   0.000000   0.000000   0.000000   0.000000  
; New Manhole
254              0.000000   0.000000   0.000000   0.000000   0.000000  
; New Manhole
255              0.000000   0.000000   0.000000   0.000000   0.000000  
; New Manhole
256              0.000000   0.000000   0.000000   0.000000   0.000000  
; New Manhole
257              0.000000   0.000000   0.000000   0.000000   0.000000  
; New Manhole
258              0.000000   0.000000   0.000000   0.000000   0.000000  
; New Manhole
259              0.000000   0.000000   0.000000   0.000000   0.000000  
; New Manhole
26               0.000000   0.000000   0.000000   0.000000   0.000000  
; New Manhole
260              0.000000   0.000000   0.000000   0.000000   0.000000  
; New Manhole
261              0.000000   0.000000   0.000000   0.000000   0.000000  
; New Manhole
262              0.000000   0.000000   0.000000   0.000000   0.000000  
; New Manhole
263              0.000000   0.000000   0.000000   0.000000   0.000000  
; New Manhole
264              0.000000   0.000000   0.000000   0.000000   0.000000  
; New Manhole
265              0.000000   0.000000   0.000000   0.000000   0.000000  
; New Manhole
266              0.000000   0.000000   0.000000   0.000000   0.000000  
; New Manhole
267              0.000000   0.000000   0.000000   0.000000   0.000000  
; New Manhole
268              0.000000   0.000000   0.000000   0.000000   0.000000  
; New Manhole
269              0.000000   0.000000   0.000000   0.000000   0.000000  
; New Manhole
27               0.000000   0.000000   0.000000   0.000000   0.000000  
; New Manhole
270              0.000000   0.000000   0.000000   0.000000   0.000000  
; New Manhole
271              0.000000   0.000000   0.000000   0.000000   0.000000  
; New Manhole
272              0.000000   0.000000   0.000000   0.000000   0.000000  
; New Manhole
273              0.000000   0.000000   0.000000   0.000000   0.000000  
; New Manhole
274              0.000000   0.000000   0.000000   0.000000   0.000000  
; New Manhole
275              0.000000   0.000000   0.000000   0.000000   0.000000  
; New Manhole
276              0.000000   0.000000   0.000000   0.000000   0.000000  
; New Manhole
277              0.000000   0.000000   0.000000   0.000000   0.000000  
; New Manhole
278              0.000000   0.000000   0.000000   0.000000   0.000000  
; New Manhole
279              0.000000   0.000000   0.000000   0.000000   0.000000  
; New Manhole
28               0.000000   0.000000   0.000000   0.000000   0.000000  
; New Manhole
280              0.000000   0.000000   0.000000   0.000000   0.000000  
; New Manhole
281              0.000000   0.000000   0.000000   0.000000   0.000000  
; New Manhole
282              0.000000   0.000000   0.000000   0.000000   0.000000  
; New Manhole
283              0.000000   0.000000   0.000000   0.000000   0.000000  
; New Manhole
284              0.000000   0.000000   0.000000   0.000000   0.000000  
; New Manhole
285              0.000000   0.000000   0.000000   0.000000   0.000000  
; New Manhole
286              0.000000   0.000000   0.000000   0.000000   0.000000  
; New Manhole
287              0.000000   0.000000   0.000000   0.000000   0.000000  
; New Manhole
288              0.000000   0.000000   0.000000   0.000000   0.000000  
; New Manhole
289              0.000000   0.000000   0.000000   0.000000   0.000000  
; New Manhole
29               0.000000   0.000000   0.000000   0.000000   0.000000  
; New Manhole
290              0.000000   0.000000   0.000000   0.000000   0.000000  
; New Manhole
291              0.000000   0.000000   0.000000   0.000000   0.000000  
; New Manhole
292              0.000000   0.000000   0.000000   0.000000   0.000000  
; New Manhole
293              0.000000   0.000000   0.000000   0.000000   0.000000  
; New Manhole
294              0.000000   0.000000   0.000000   0.000000   0.000000  
; New Manhole
295              0.000000   0.000000   0.000000   0.000000   0.000000  
; New Manhole
296              0.000000   0.000000   0.000000   0.000000   0.000000  
; New Manhole
297              0.000000   0.000000   0.000000   0.000000   0.000000  
; New Manhole
298              0.000000   0.000000   0.000000   0.000000   0.000000  
; New Manhole
299              0.000000   0.000000   0.000000   0.000000   0.000000  
; New Manhole
3                0.000000   0.000000   0.000000   0.000000   0.000000  
; New Manhole
30               0.000000   0.000000   0.000000   0.000000   0.000000  
; New Manhole
300              0.000000   0.000000   0.000000   0.000000   0.000000  
; New Manhole
301              0.000000   0.000000   0.000000   0.000000   0.000000  
; New Manhole
302              0.000000   0.000000   0.000000   0.000000   0.000000  
; New Manhole
303              0.000000   0.000000   0.000000   0.000000   0.000000  
; New Manhole
304              0.000000   0.000000   0.000000   0.000000   0.000000  
; New Manhole
305              0.000000   0.000000   0.000000   0.000000   0.000000  
; New Manhole
306              0.000000   0.000000   0.000000   0.000000   0.000000  
; New Manhole
307              0.000000   0.000000   0.000000   0.000000   0.000000  
; New Manhole
308              0.000000   0.000000   0.000000   0.000000   0.000000  
; New Manhole
309              0.000000   0.000000   0.000000   0.000000   0.000000  
; New Manhole
31               0.000000   0.000000   0.000000   0.000000   0.000000  
; New Manhole
310              0.000000   0.000000   0.000000   0.000000   0.000000  
; New Manhole
311              0.000000   0.000000   0.000000   0.000000   0.000000  
; New Manhole
312              0.000000   0.000000   0.000000   0.000000   0.000000  
; New Manhole
313              0.000000   0.000000   0.000000   0.000000   0.000000  
; New Manhole
314              0.000000   0.000000   0.000000   0.000000   0.000000  
; New Manhole
315              0.000000   0.000000   0.000000   0.000000   0.000000  
; New Manhole
316              0.000000   0.000000   0.000000   0.000000   0.000000  
; New Manhole
317              0.000000   0.000000   0.000000   0.000000   0.000000  
; New Manhole
318              0.000000   0.000000   0.000000   0.000000   0.000000  
; New Manhole
319              0.000000   0.000000   0.000000   0.000000   0.000000  
; New Manhole
32               0.000000   0.000000   0.000000   0.000000   0.000000  
; New Manhole
320              0.000000   0.000000   0.000000   0.000000   0.000000  
; New Manhole
321              0.000000   0.000000   0.000000   0.000000   0.000000  
; New Manhole
322              0.000000   0.000000   0.000000   0.000000   0.000000  
; New Manhole
323              0.000000   0.000000   0.000000   0.000000   0.000000  
; New Manhole
324              0.000000   0.000000   0.000000   0.000000   0.000000  
; New Manhole
325              0.000000   0.000000   0.000000   0.000000   0.000000  
; New Manhole
326              0.000000   0.000000   0.000000   0.000000   0.000000  
; New Manhole
327              0.000000   0.000000   0.000000   0.000000   0.000000  
; New Manhole
328              0.000000   0.000000   0.000000   0.000000   0.000000  
; New Manhole
329              0.000000   0.000000   0.000000   0.000000   0.000000  
; New Manhole
33               0.000000   0.000000   0.000000   0.000000   0.000000  
; New Manhole
330              0.000000   0.000000   0.000000   0.000000   0.000000  
; New Manhole
331              0.000000   0.000000   0.000000   0.000000   0.000000  
; New Manhole
332              0.000000   0.000000   0.000000   0.000000   0.000000  
; New Manhole
333              0.000000   0.000000   0.000000   0.000000   0.000000  
; New Manhole
334              0.000000   0.000000   0.000000   0.000000   0.000000  
; New Manhole
335              0.000000   0.000000   0.000000   0.000000   0.000000  
; New Manhole
336              0.000000   0.000000   0.000000   0.000000   0.000000  
; New Manhole
337              0.000000   0.000000   0.000000   0.000000   0.000000  
; New Manhole
338              0.000000   0.000000   0.000000   0.000000   0.000000  
; New Manhole
339              0.000000   0.000000   0.000000   0.000000   0.000000  
; New Manhole
34               0.000000   0.000000   0.000000   0.000000   0.000000  
; New Manhole
340              0.000000   0.000000   0.000000   0.000000   0.000000  
; New Manhole
341              0.000000   0.000000   0.000000   0.000000   0.000000  
; New Manhole
342              0.000000   0.000000   0.000000   0.000000   0.000000  
; New Manhole
343              0.000000   0.000000   0.000000   0.000000   0.000000  
; New Manhole
344              0.000000   0.000000   0.000000   0.000000   0.000000  
; New Manhole
345              0.000000   0.000000   0.000000   0.000000   0.000000  
; New Manhole
346              0.000000   0.000000   0.000000   0.000000   0.000000  
; New Manhole
347              0.000000   0.000000   0.000000   0.000000   0.000000  
; New Manhole
348              0.000000   0.000000   0.000000   0.000000   0.000000  
; New Manhole
349              0.000000   0.000000   0.000000   0.000000   0.000000  
; New Manhole
35               0.000000   0.000000   0.000000   0.000000   0.000000  
; New Manhole
350              0.000000   0.000000   0.000000   0.000000   0.000000  
; New Manhole
351              0.000000   0.000000   0.000000   0.000000   0.000000  
; New Manhole
352              0.000000   0.000000   0.000000   0.000000   0.000000  
; New Manhole
353              0.000000   0.000000   0.000000   0.000000   0.000000  
; New Manhole
354              0.000000   0.000000   0.000000   0.000000   0.000000  
; New Manhole
355              0.000000   0.000000   0.000000   0.000000   0.000000  
; New Manhole
356              0.000000   0.000000   0.000000   0.000000   0.000000  
; New Manhole
357              0.000000   0.000000   0.000000   0.000000   0.000000  
; New Manhole
358              0.000000   0.000000   0.000000   0.000000   0.000000  
; New Manhole
359              0.000000   0.000000   0.000000   0.000000   0.000000  
; New Manhole
36               0.000000   0.000000   0.000000   0.000000   0.000000  
; New Manhole
360              0.000000   0.000000   0.000000   0.000000   0.000000  
; New Manhole
361              0.000000   0.000000   0.000000   0.000000   0.000000  
; New Manhole
362              0.000000   0.000000   0.000000   0.000000   0.000000  
; New Manhole
363              0.000000   0.000000   0.000000   0.000000   0.000000  
; New Manhole
364              0.000000   0.000000   0.000000   0.000000   0.000000  
; New Manhole
365              0.000000   0.000000   0.000000   0.000000   0.000000  
; New Manhole
366              0.000000   0.000000   0.000000   0.000000   0.000000  
; New Manhole
367              0.000000   0.000000   0.000000   0.000000   0.000000  
; New Manhole
368              0.000000   0.000000   0.000000   0.000000   0.000000  
; New Manhole
369              0.000000   0.000000   0.000000   0.000000   0.000000  
; New Manhole
37               0.000000   0.000000   0.000000   0.000000   0.000000  
; New Manhole