[TITLE]
;;Project Title/Notes

[OPTIONS]
;;Option             Value
FLOW_UNITS           GPM
INFILTRATION         HORTON
FLOW_ROUTING         DYNWAVE
LINK_OFFSETS         DEPTH
MIN_SLOPE            0
ALLOW_PONDING        YES
SKIP_STEADY_STATE    NO

IGNORE_SNOWMELT      YES
IGNORE_GROUNDWATER   YES
IGNORE_QUALITY       YES
START_DATE           06/18/2012
START_TIME           00:00:00
REPORT_START_DATE    06/18/2012
REPORT_START_TIME    00:00:00
END_DATE             06/21/2012
END_TIME             23:00:00
SWEEP_START          01/01
SWEEP_END            01/01
DRY_DAYS             2.000000
REPORT_STEP          00:05:00
WET_STEP             00:15:00
DRY_STEP             01:00:00
ROUTING_STEP         0:00:10 

INERTIAL_DAMPING     NONE
NORMAL_FLOW_LIMITED  SLOPE
FORCE_MAIN_EQUATION  H-W
VARIABLE_STEP        0.75
LENGTHENING_STEP     10
MIN_SURFAREA         12.557
MAX_TRIALS           8
HEAD_TOLERANCE       0.000010
SYS_FLOW_TOL         5
LAT_FLOW_TOL         5
MINIMUM_STEP         0
THREADS              1

[EVAPORATION]
;;Data Source    Parameters
;;-------------- ----------------
CONSTANT         0.0
DRY_ONLY         NO

[RAINGAGES]
;;Name           Format    Interval SCF      Source    
;;-------------- --------- ------ ------ ----------
; Rain Gauge
NYSEG            INTENSITY 1.000000 1.000000 TIMESERIES TIMESERI-1      
; New Raingage
RAINGAGE-1       CUMULATIVE 0.250000 1.000000 TIMESERIES 100YR_STORM     

[SUBCATCHMENTS]
;;Name           Rain Gage        Outlet           Area     %Imperv  Width    %Slope   CurbLen  SnowPack        
;;-------------- ---------------- ---------------- -------- -------- -------- -------- -------- ----------------
; New Subcatchment
SUB-3654         RAINGAGE-1       1679             70.484889 2.052781 4783.805859 0.698837 0.000000                 
; New Subcatchment
SUB-3656         RAINGAGE-1       1675             0.001026 30.000000 11.362959 0.020000 0.000000                 
; New Subcatchment
SUB-3658         RAINGAGE-1       1675             0.009230 30.000000 68.177756 0.035556 0.000000                 
; New Subcatchment
SUB-3660         RAINGAGE-1       1675             0.001026 30.000000 11.362959 0.020000 0.000000                 
; New Subcatchment
SUB-3662         RAINGAGE-1       1675             4.109610 12.711989 1499.910626 0.038425 0.000000                 
; New Subcatchment
SUB-3664         RAINGAGE-1       1674             0.002051 30.000000 22.725919 0.030000 0.000000                 
; New Subcatchment
SUB-3666         RAINGAGE-1       1675             1.772250 48.218464 1079.481132 0.070330 0.000000                 
; New Subcatchment
SUB-3668         RAINGAGE-1       1674             0.001026 30.000000 11.362959 0.020000 0.000000                 
; New Subcatchment
SUB-3670         RAINGAGE-1       1674             20.182934 4.813151 2431.673287 0.057802 0.000000                 
; New Subcatchment
SUB-3672         RAINGAGE-1       462              0.090253 37.587588 181.807349 0.420682 0.000000                 
; New Subcatchment
SUB-3674         RAINGAGE-1       462              1.631742 55.632326 772.681231 0.370729 0.000000                 
; New Subcatchment
SUB-3676         RAINGAGE-1       452              45.754411 26.978506 3806.591361 0.085341 0.000000                 
; New Subcatchment
SUB-3678         RAINGAGE-1       1742             3.770134 0.018487 977.214499 0.223368 0.000000                 
; New Subcatchment
SUB-3680         RAINGAGE-1       448              2.495304 38.692608 988.577458 0.353288 0.000000                 
; New Subcatchment
SUB-3684         RAINGAGE-1       1710             97.810156 35.075473 4477.005958 0.184985 0.000000                 
; New Subcatchment
SUB-3686         RAINGAGE-1       454              8.206913 51.651114 2181.688183 0.246817 0.000000                 
; New Subcatchment
SUB-3688         RAINGAGE-1       448              8.558696 44.015343 1931.703079 0.237406 0.000000                 
; New Subcatchment
SUB-3690         RAINGAGE-1       457              7.166947 59.931341 1999.880834 0.445518 0.000000                 
; New Subcatchment
SUB-3694         RAINGAGE-1       455              4.056278 46.786870 1443.095829 0.515762 0.000000                 
; New Subcatchment
SUB-3696         RAINGAGE-1       451              10.690935 41.521749 1863.525323 0.341230 0.000000                 
; New Subcatchment
SUB-3698         RAINGAGE-1       1760             0.001026 45.000000 11.362959 0.320000 0.000000                 
; New Subcatchment
SUB-3700         RAINGAGE-1       1701             0.039999 75.000000 159.081430 0.038718 0.000000                 
; New Subcatchment
SUB-3702         RAINGAGE-1       459A             154.847277 17.838955 9840.322741 0.266028 0.000000                 
; New Subcatchment
SUB-3704         RAINGAGE-1       1745             4.780358 0.000000 1613.540219 0.184186 0.000000                 
; New Subcatchment
SUB-3706         RAINGAGE-1       1705             2.285054 58.614422 977.214499 0.552204 0.000000                 
; New Subcatchment
SUB-3708         RAINGAGE-1       1706             0.001026 45.000000 11.362959 0.320000 0.000000                 
; New Subcatchment
SUB-3710         RAINGAGE-1       1706             0.003077 45.000000 22.725919 0.426667 0.000000                 
; New Subcatchment
SUB-3712         RAINGAGE-1       1747             2.467612 0.000000 1159.021847 0.278911 0.000000                 
; New Subcatchment
SUB-3714         RAINGAGE-1       1094             0.027691 20.799212 124.992552 0.302222 0.000000                 
; New Subcatchment
SUB-3716         RAINGAGE-1       1748             2.662478 0.000000 988.577458 0.235747 0.000000                 
; New Subcatchment
SUB-3718         RAINGAGE-1       1094             0.398961 10.407919 477.244290 0.494550 0.000000                 
; New Subcatchment
SUB-3720         RAINGAGE-1       1749             4.892149 0.515794 1272.651440 0.304769 0.000000                 
; New Subcatchment
SUB-3722         RAINGAGE-1       1490             2.135315 81.320252 1261.288481 0.388237 0.000000                 
; New Subcatchment
SUB-3724         RAINGAGE-1       446              7.773081 47.758608 1908.977160 0.600004 0.000000                 
; New Subcatchment
SUB-3726         RAINGAGE-1       1090             0.001026 85.000000 11.362959 1.280000 0.000000                 
; New Subcatchment
SUB-3728         RAINGAGE-1       1090             0.823563 2.111192 477.244290 0.329016 0.000000                 
; New Subcatchment
SUB-3730         RAINGAGE-1       1089             2.936315 21.017409 1318.103277 0.518474 0.000000                 
; New Subcatchment
SUB-3732         RAINGAGE-1       1707             28.868806 16.780261 2647.569514 0.768102 0.000000                 
; New Subcatchment
SUB-3734         RAINGAGE-1       1090             1.542514 4.629896 1272.651440 0.515938 0.000000                 
; New Subcatchment
SUB-3736         RAINGAGE-1       1080             0.317938 40.224809 272.711023 0.303613 0.000000                 
; New Subcatchment
SUB-3738         RAINGAGE-1       1080             0.009230 30.000000 45.451837 0.746667 0.000000                 
; New Subcatchment
SUB-3740         RAINGAGE-1       1491             7.255149 55.180889 2090.784509 0.192816 0.000000                 
; New Subcatchment
SUB-3742         RAINGAGE-1       1094             38.156709 27.226367 4192.931976 0.687173 0.000000                 
; New Subcatchment
SUB-3744         RAINGAGE-1       1453             5.921859 48.851254 1477.184707 0.190700 0.000000                 
; New Subcatchment
SUB-3746         RAINGAGE-1       1493             0.228711 30.000000 261.348064 0.315561 0.000000                 
; New Subcatchment
SUB-3748         RAINGAGE-1       1452             0.006154 30.000000 56.814796 0.466667 0.000000                 
; New Subcatchment
SUB-3750         RAINGAGE-1       1081             3.144513 56.853063 1409.006951 0.452084 0.000000                 
; New Subcatchment
SUB-3752         RAINGAGE-1       1452             0.029743 30.000000 90.903674 0.641034 0.000000                 
; New Subcatchment
SUB-3754         RAINGAGE-1       1085             34.480931 0.314741 3363.435949 0.122068 0.000000                 
; New Subcatchment
SUB-3756         RAINGAGE-1       1452             13.148291 40.171905 2215.777061 0.637004 0.000000                 
; New Subcatchment
SUB-3758         RAINGAGE-1       1082             6.763883 47.753281 1533.999504 0.619973 0.000000                 
; New Subcatchment
SUB-3760         RAINGAGE-1       1456             8.839713 52.687449 1624.903178 0.186286 0.000000                 
; New Subcatchment
SUB-3762         RAINGAGE-1       1825             6.387485 49.020943 1590.814300 0.446880 0.000000                 
; New Subcatchment
SUB-3764         RAINGAGE-1       1467             0.001026 30.000000 11.362959 0.640000 0.000000                 
; New Subcatchment
SUB-3766         RAINGAGE-1       1467             0.512804 30.000000 534.059086 0.417640 0.000000                 
; New Subcatchment
SUB-3768         RAINGAGE-1       1822             1.566103 58.503069 659.051639 0.438107 0.000000                 
; New Subcatchment
SUB-3770         RAINGAGE-1       1449             12.109350 42.718911 2329.406654 0.335630 0.000000                 
; New Subcatchment
SUB-3772         RAINGAGE-1       1830             0.001026 45.000000 11.362959 0.080000 0.000000                 
; New Subcatchment
SUB-3774         RAINGAGE-1       1830             0.001026 45.000000 11.362959 0.080000 0.000000                 
; New Subcatchment
SUB-3776         RAINGAGE-1       1823             2.253260 54.365202 920.399702 0.231256 0.000000                 
; New Subcatchment
SUB-3778         RAINGAGE-1       1465             5.362903 46.363647 1363.555114 0.289279 0.000000                 
; New Subcatchment
SUB-3780         RAINGAGE-1       1681             0.644082 41.710691 499.970209 0.231799 0.000000                 
; New Subcatchment
SUB-3782         RAINGAGE-1       1829             4.443958 71.121439 1397.643992 0.245578 0.000000                 
; New Subcatchment
SUB-3784         RAINGAGE-1       1682             0.670747 47.371191 568.147964 0.247401 0.000000                 
; New Subcatchment
SUB-3786         RAINGAGE-1       1831             10.626321 57.269300 2568.028799 0.311401 0.000000                 
; New Subcatchment
SUB-3788         RAINGAGE-1       460              329.416990 50.234367 11510.677756 0.519660 0.000000                 
; New Subcatchment
SUB-3790         RAINGAGE-1       1832             104.500195 53.222476 6988.219961 0.548461 0.000000                 
; New Subcatchment
SUB-3792         RAINGAGE-1       1130             0.073844 30.416009 193.170308 0.140278 0.000000                 
; New Subcatchment
SUB-3794         RAINGAGE-1       1125             4.292168 49.892509 1284.014399 0.497391 0.000000                 
; New Subcatchment
SUB-3796         RAINGAGE-1       1124             35.881911 57.629378 3567.969216 0.430607 0.000000                 
; New Subcatchment
SUB-3798         RAINGAGE-1       1167             0.826640 64.835533 499.970209 0.451526 0.000000                 
; New Subcatchment
SUB-3800         RAINGAGE-1       1128             19.818843 66.947979 3136.176763 0.194345 0.000000                 
; New Subcatchment
SUB-3802         RAINGAGE-1       1837             2.671708 50.552428 1227.199603 0.205889 0.000000                 
; New Subcatchment
SUB-3804         RAINGAGE-1       1135             0.001026 30.000000 11.362959 0.320000 0.000000                 
; New Subcatchment
SUB-3806         RAINGAGE-1       1439             2.942469 48.910086 1215.836644 0.120976 0.000000                 
; New Subcatchment
SUB-3808         RAINGAGE-1       1432             0.001026 30.000000 11.362959 0.010000 0.000000                 
; New Subcatchment
SUB-3810         RAINGAGE-1       1444             0.001026 30.000000 11.362959 0.160000 0.000000                 
; New Subcatchment
SUB-3812         RAINGAGE-1       1447             8.147428 48.019522 1670.355015 0.139901 0.000000                 
; New Subcatchment
SUB-3814         RAINGAGE-1       1443             0.001026 30.000000 11.362959 0.160000 0.000000                 
; New Subcatchment
SUB-3816         RAINGAGE-1       1443             0.001026 30.000000 11.362959 0.320000 0.000000                 
; New Subcatchment
SUB-3818         RAINGAGE-1       1443             0.001026 30.000000 11.362959 0.320000 0.000000                 
; New Subcatchment
SUB-3820         RAINGAGE-1       1168             5.598792 28.226303 1318.103277 0.364536 0.000000                 
; New Subcatchment
SUB-3822         RAINGAGE-1       1443             0.085125 30.000000 215.896226 0.419277 0.000000                 
; New Subcatchment
SUB-3824         RAINGAGE-1       1845             0.001026 30.000000 11.362959 1.280000 0.000000                 
; New Subcatchment
SUB-3826         RAINGAGE-1       1445             1.107656 30.000000 1249.925521 0.455287 0.000000                 
; New Subcatchment
SUB-3828         RAINGAGE-1       1419             1.185603 20.209383 761.318272 0.649991 0.000000                 
; New Subcatchment
SUB-3830         RAINGAGE-1       1131             1.990705 50.307869 1409.006951 0.471396 0.000000                 
; New Subcatchment
SUB-3832         RAINGAGE-1       1134             0.001026 30.000000 11.362959 0.320000 0.000000                 
; New Subcatchment
SUB-3834         RAINGAGE-1       1430             0.985609 60.084759 602.236842 0.578377 0.000000                 
; New Subcatchment
SUB-3836         RAINGAGE-1       1134             0.004102 30.000000 34.088878 0.400000 0.000000                 
; New Subcatchment
SUB-3838         RAINGAGE-1       1134             0.001026 30.000000 11.362959 0.320000 0.000000                 
; New Subcatchment
SUB-3840         RAINGAGE-1       1151             0.003077 30.000000 22.725919 0.643333 0.000000                 
; New Subcatchment
SUB-3842         RAINGAGE-1       1134             0.001026 30.000000 11.362959 0.320000 0.000000                 
; New Subcatchment
SUB-3844         RAINGAGE-1       1151             0.078972 30.000000 181.807349 0.691948 0.000000                 
; New Subcatchment
SUB-3846         RAINGAGE-1       1134             0.001026 30.000000 11.362959 0.320000 0.000000                 
; New Subcatchment
SUB-3848         RAINGAGE-1       1844             0.001026 30.000000 11.362959 0.320000 0.000000                 
; New Subcatchment
SUB-3850         RAINGAGE-1       1153             168.022233 27.812420 6795.049653 0.551181 0.000000                 
; New Subcatchment
SUB-3852         RAINGAGE-1       1127             11.755516 54.262527 2249.865939 0.412236 0.000000                 
; New Subcatchment
SUB-3854         RAINGAGE-1       1133             1.334316 31.944077 1215.836644 0.477271 0.000000                 
; New Subcatchment
SUB-3856         RAINGAGE-1       1152             1.058427 70.278990 477.244290 0.620911 0.000000                 
; New Subcatchment
SUB-3858         RAINGAGE-1       1169             7.222329 61.229972 1715.806852 0.354544 0.000000                 
; New Subcatchment
SUB-3860         RAINGAGE-1       1171             2.929136 43.333797 1374.918074 0.315546 0.000000                 
; New Subcatchment
SUB-3862         RAINGAGE-1       1148             6.913622 49.236972 1329.466236 0.503293 0.000000                 
; New Subcatchment
SUB-3864         RAINGAGE-1       1843             0.815358 32.045443 784.044191 0.473358 0.000000                 
; New Subcatchment
SUB-3866         RAINGAGE-1       1149             1.965064 44.087667 852.221946 0.517463 0.000000                 
; New Subcatchment
SUB-3868         RAINGAGE-1       1150             1.603025 48.465682 1147.658888 0.646884 0.000000                 
; New Subcatchment
SUB-3870         RAINGAGE-1       1189             1.092272 59.350022 499.970209 0.753521 0.000000                 
; New Subcatchment
SUB-3872         RAINGAGE-1       1152             3.373224 61.825536 806.770109 0.742718 0.000000                 
; New Subcatchment
SUB-3874         RAINGAGE-1       1158             0.712797 30.000000 670.414598 0.754144 0.000000                 
; New Subcatchment
SUB-3876         RAINGAGE-1       1155             16.076401 48.853274 2261.228898 0.602737 0.000000                 
; New Subcatchment
SUB-3878         RAINGAGE-1       1422             0.834845 30.000000 613.599801 0.569017 0.000000                 
; New Subcatchment
SUB-3880         RAINGAGE-1       1167             6.604914 44.816328 2124.873386 0.441705 0.000000                 
; New Subcatchment
SUB-3882         RAINGAGE-1       1421             7.909487 9.455352 1420.369911 0.513466 0.000000                 
; New Subcatchment
SUB-3884         RAINGAGE-1       1419             203.893888 1.637797 10067.581927 0.450355 0.000000                 
; New Subcatchment
SUB-3886         RAINGAGE-1       1079             118.351027 15.165044 10169.848561 0.450679 0.000000                 
; New Subcatchment
SUB-3888         RAINGAGE-1       1085             200.881679 5.104983 7760.901192 0.238302 0.000000                 

[SUBAREAS]
;;Subcatchment   N-Imperv   N-Perv     S-Imperv   S-Perv     PctZero    RouteTo    PctRouted 
;;-------------- ---------- ---------- ---------- ---------- ---------- ---------- ----------
SUB-3654         0.040000   0.010000   0.010000   0.000000   0.000000   OUTLET    
SUB-3656         0.040000   0.010000   0.010000   0.000000   0.000000   OUTLET    
SUB-3658         0.040000   0.010000   0.010000   0.000000   0.000000   OUTLET    
SUB-3660         0.040000   0.010000   0.010000   0.000000   0.000000   OUTLET    
SUB-3662         0.040000   0.010000   0.010000   0.000000   0.000000   OUTLET    
SUB-3664         0.040000   0.010000   0.010000   0.000000   0.000000   OUTLET    
SUB-3666         0.040000   0.010000   0.010000   0.000000   0.000000   OUTLET    
SUB-3668         0.040000   0.010000   0.010000   0.000000   0.000000   OUTLET    
SUB-3670         0.040000   0.010000   0.010000   0.000000   0.000000   OUTLET    
SUB-3672         0.040000   0.010000   0.010000   0.000000   0.000000   OUTLET    
SUB-3674         0.040000   0.010000   0.010000   0.000000   0.000000   OUTLET    
SUB-3676         0.040000   0.010000   0.010000   0.000000   0.000000   OUTLET    
SUB-3678         0.040000   0.010000   0.010000   0.000000   0.000000   OUTLET    
SUB-3680         0.040000   0.010000   0.010000   0.000000   0.000000   OUTLET    
SUB-3684         0.040000   0.010000   0.010000   0.000000   0.000000   OUTLET    
SUB-3686         0.040000   0.010000   0.010000   0.000000   0.000000   OUTLET    
SUB-3688         0.040000   0.010000   0.010000   0.000000   0.000000   OUTLET    
SUB-3690         0.040000   0.010000   0.010000   0.000000   0.000000   OUTLET    
SUB-3694         0.040000   0.010000   0.010000   0.000000   0.000000   OUTLET    
SUB-3696         0.040000   0.010000   0.010000   0.000000   0.000000   OUTLET    
SUB-3698         0.040000   0.010000   0.010000   0.000000   0.000000   OUTLET    
SUB-3700         0.040000   0.010000   0.010000   0.000000   0.000000   OUTLET    
SUB-3702         0.040000   0.010000   0.010000   0.000000   0.000000   OUTLET    
SUB-3704         0.040000   0.010000   0.010000   0.000000   0.000000   OUTLET    
SUB-3706         0.040000   0.010000   0.010000   0.000000   0.000000   OUTLET    
SUB-3708         0.040000   0.010000   0.010000   0.000000   0.000000   OUTLET    
SUB-3710         0.040000   0.010000   0.010000   0.000000   0.000000   OUTLET    
SUB-3712         0.040000   0.010000   0.010000   0.000000   0.000000   OUTLET    
SUB-3714         0.040000   0.010000   0.010000   0.000000   0.000000   OUTLET    
SUB-3716         0.040000   0.010000   0.010000   0.000000   0.000000   OUTLET    
SUB-3718         0.040000   0.010000   0.010000   0.000000   0.000000   OUTLET    
SUB-3720         0.040000   0.010000   0.010000   0.000000   0.000000   OUTLET    
SUB-3722         0.040000   0.010000   0.010000   0.000000   0.000000   OUTLET    
SUB-3724         0.040000   0.010000   0.010000   0.000000   0.000000   OUTLET    
SUB-3726         0.040000   0.010000   0.010000   0.000000   0.000000   OUTLET    
SUB-3728         0.040000   0.010000   0.010000   0.000000   0.000000   OUTLET    
SUB-3730         0.040000   0.010000   0.010000   0.000000   0.000000   OUTLET    
SUB-3732         0.040000   0.010000   0.010000   0.000000   0.000000   OUTLET    
SUB-3734         0.040000   0.010000   0.010000   0.000000   0.000000   OUTLET    
SUB-3736         0.040000   0.010000   0.010000   0.000000   0.000000   OUTLET    
SUB-3738         0.040000   0.010000   0.010000   0.000000   0.000000   OUTLET    
SUB-3740         0.040000   0.010000   0.010000   0.000000   0.000000   OUTLET    
SUB-3742         0.040000   0.010000   0.010000   0.000000   0.000000   OUTLET    
SUB-3744         0.040000   0.010000   0.010000   0.000000   0.000000   OUTLET    
SUB-3746         0.040000   0.010000   0.010000   0.000000   0.000000   OUTLET    
SUB-3748         0.040000   0.010000   0.010000   0.000000   0.000000   OUTLET    
SUB-3750         0.040000   0.010000   0.010000   0.000000   0.000000   OUTLET    
SUB-3752         0.040000   0.010000   0.010000   0.000000   0.000000   OUTLET    
SUB-3754         0.040000   0.010000   0.010000   0.000000   0.000000   OUTLET    
SUB-3756         0.040000   0.010000   0.010000   0.000000   0.000000   OUTLET    
SUB-3758         0.040000   0.010000   0.010000   0.000000   0.000000   OUTLET    
SUB-3760         0.040000   0.010000   0.010000   0.000000   0.000000   OUTLET    
SUB-3762         0.040000   0.010000   0.010000   0.000000   0.000000   OUTLET    
SUB-3764         0.040000   0.010000   0.010000   0.000000   0.000000   OUTLET    
SUB-3766         0.040000   0.010000   0.010000   0.000000   0.000000   OUTLET    
SUB-3768         0.040000   0.010000   0.010000   0.000000   0.000000   OUTLET    
SUB-3770         0.040000   0.010000   0.010000   0.000000   0.000000   OUTLET    
SUB-3772         0.040000   0.010000   0.010000   0.000000   0.000000   OUTLET    
SUB-3774         0.040000   0.010000   0.010000   0.000000   0.000000   OUTLET    
SUB-3776         0.040000   0.010000   0.010000   0.000000   0.000000   OUTLET    
SUB-3778         0.040000   0.010000   0.010000   0.000000   0.000000   OUTLET    
SUB-3780         0.040000   0.010000   0.010000   0.000000   0.000000   OUTLET    
SUB-3782         0.040000   0.010000   0.010000   0.000000   0.000000   OUTLET    
SUB-3784         0.040000   0.010000   0.010000   0.000000   0.000000   OUTLET    
SUB-3786         0.040000   0.010000   0.010000   0.000000   0.000000   OUTLET    
SUB-3788         0.040000   0.010000   0.010000   0.000000   0.000000   OUTLET    
SUB-3790         0.040000   0.010000   0.010000   0.000000   0.000000   OUTLET    
SUB-3792         0.040000   0.010000   0.010000   0.000000   0.000000   OUTLET    
SUB-3794         0.040000   0.010000   0.010000   0.000000   0.000000   OUTLET    
SUB-3796         0.040000   0.010000   0.010000   0.000000   0.000000   OUTLET    
SUB-3798         0.040000   0.010000   0.010000   0.000000   0.000000   OUTLET    
SUB-3800         0.040000   0.010000   0.010000   0.000000   0.000000   OUTLET    
SUB-3802         0.040000   0.010000   0.010000   0.000000   0.000000   OUTLET    
SUB-3804         0.040000   0.010000   0.010000   0.000000   0.000000   OUTLET    
SUB-3806         0.040000   0.010000   0.010000   0.000000   0.000000   OUTLET    
SUB-3808         0.040000   0.010000   0.010000   0.000000   0.000000   OUTLET    
SUB-3810         0.040000   0.010000   0.010000   0.000000   0.000000   OUTLET    
SUB-3812         0.040000   0.010000   0.010000   0.000000   0.000000   OUTLET    
SUB-3814         0.040000   0.010000   0.010000   0.000000   0.000000   OUTLET    
SUB-3816         0.040000   0.010000   0.010000   0.000000   0.000000   OUTLET    
SUB-3818         0.040000   0.010000   0.010000   0.000000   0.000000   OUTLET    
SUB-3820         0.040000   0.010000   0.010000   0.000000   0.000000   OUTLET    
SUB-3822         0.040000   0.010000   0.010000   0.000000   0.000000   OUTLET    
SUB-3824         0.040000   0.010000   0.010000   0.000000   0.000000   OUTLET    
SUB-3826         0.040000   0.010000   0.010000   0.000000   0.000000   OUTLET    
SUB-3828         0.040000   0.010000   0.010000   0.000000   0.000000   OUTLET    
SUB-3830         0.040000   0.010000   0.010000   0.000000   0.000000   OUTLET    
SUB-3832         0.040000   0.010000   0.010000   0.000000   0.000000   OUTLET    
SUB-3834         0.040000   0.010000   0.010000   0.000000   0.000000   OUTLET    
SUB-3836         0.040000   0.010000   0.010000   0.000000   0.000000   OUTLET    
SUB-3838         0.040000   0.010000   0.010000   0.000000   0.000000   OUTLET    
SUB-3840         0.040000   0.010000   0.010000   0.000000   0.000000   OUTLET    
SUB-3842         0.040000   0.010000   0.010000   0.000000   0.000000   OUTLET    
SUB-3844         0.040000   0.010000   0.010000   0.000000   0.000000   OUTLET    
SUB-3846         0.040000   0.010000   0.010000   0.000000   0.000000   OUTLET    
SUB-3848         0.040000   0.010000   0.010000   0.000000   0.000000   OUTLET    
SUB-3850         0.040000   0.010000   0.010000   0.000000   0.000000   OUTLET    
SUB-3852         0.040000   0.010000   0.010000   0.000000   0.000000   OUTLET    
SUB-3854         0.040000   0.010000   0.010000   0.000000   0.000000   OUTLET    
SUB-3856         0.040000   0.010000   0.010000   0.000000   0.000000   OUTLET    
SUB-3858         0.040000   0.010000   0.010000   0.000000   0.000000   OUTLET    
SUB-3860         0.040000   0.010000   0.010000   0.000000   0.000000   OUTLET    
SUB-3862         0.040000   0.010000   0.010000   0.000000   0.000000   OUTLET    
SUB-3864         0.040000   0.010000   0.010000   0.000000   0.000000   OUTLET    
SUB-3866         0.040000   0.010000   0.010000   0.000000   0.000000   OUTLET    
SUB-3868         0.040000   0.010000   0.010000   0.000000   0.000000   OUTLET    
SUB-3870         0.040000   0.010000   0.010000   0.000000   0.000000   OUTLET    
SUB-3872         0.040000   0.010000   0.010000   0.000000   0.000000   OUTLET    
SUB-3874         0.040000   0.010000   0.010000   0.000000   0.000000   OUTLET    
SUB-3876         0.040000   0.010000   0.010000   0.000000   0.000000   OUTLET    
SUB-3878         0.040000   0.010000   0.010000   0.000000   0.000000   OUTLET    
SUB-3880         0.040000   0.010000   0.010000   0.000000   0.000000   OUTLET    
SUB-3882         0.040000   0.010000   0.010000   0.000000   0.000000   OUTLET    
SUB-3884         0.040000   0.010000   0.010000   0.000000   0.000000   OUTLET    
SUB-3886         0.040000   0.010000   0.010000   0.000000   0.000000   OUTLET    
SUB-3888         0.040000   0.010000   0.010000   0.000000   0.000000   OUTLET    

[INFILTRATION]
;;Subcatchment   MaxRate    MinRate    Decay      DryTime    MaxInfil  
;;-------------- ---------- ---------- ---------- ---------- ----------
SUB-3654         3.000000   0.100000   0.050000   2.112935   0.000000  
SUB-3656         3.000000   0.100000   0.050000   0.001000   0.000000  
SUB-3658         3.000000   0.100000   0.050000   0.001000   0.000000  
SUB-3660         3.000000   0.100000   0.050000   0.001000   0.000000  
SUB-3662         3.000000   0.100000   0.050000   2.954371   0.000000  
SUB-3664         3.000000   0.100000   0.050000   0.001000   0.000000  
SUB-3666         3.000000   0.100000   0.050000   0.001000   0.000000  
SUB-3668         3.000000   0.100000   0.050000   0.001000   0.000000  
SUB-3670         3.000000   0.100000   0.050000   2.100358   0.000000  
SUB-3672         3.000000   0.100000   0.050000   5.000000   0.000000  
SUB-3674         3.000000   0.100000   0.050000   3.209123   0.000000  
SUB-3676         3.000000   0.100000   0.050000   0.574715   0.000000  
SUB-3678         3.000000   0.100000   0.050000   5.000000   0.000000  
SUB-3680         3.000000   0.100000   0.050000   3.413914   0.000000  
SUB-3684         3.000000   0.100000   0.050000   0.585194   0.000000  
SUB-3686         3.000000   0.100000   0.050000   3.028931   0.000000  
SUB-3688         3.000000   0.100000   0.050000   2.268850   0.000000  
SUB-3690         3.000000   0.100000   0.050000   4.248356   0.000000  
SUB-3694         3.000000   0.100000   0.050000   4.977030   0.000000  
SUB-3696         3.000000   0.100000   0.050000   4.200642   0.000000  
SUB-3698         3.000000   0.100000   0.050000   5.000000   0.000000  
SUB-3700         3.000000   0.100000   0.050000   5.000000   0.000000  
SUB-3702         3.000000   0.100000   0.050000   4.586837   0.000000  
SUB-3704         3.000000   0.100000   0.050000   5.000000   0.000000  
SUB-3706         3.000000   0.100000   0.050000   0.001000   0.000000  
SUB-3708         3.000000   0.100000   0.050000   0.001000   0.000000  
SUB-3710         3.000000   0.100000   0.050000   0.001000   0.000000  
SUB-3712         3.000000   0.100000   0.050000   5.000000   0.000000  
SUB-3714         3.000000   0.100000   0.050000   5.000000   0.000000  
SUB-3716         3.000000   0.100000   0.050000   5.000000   0.000000  
SUB-3718         3.000000   0.100000   0.050000   5.000000   0.000000  
SUB-3720         3.000000   0.100000   0.050000   5.000000   0.000000  
SUB-3722         3.000000   0.100000   0.050000   5.000000   0.000000  
SUB-3724         3.000000   0.100000   0.050000   5.000000   0.000000  
SUB-3726         3.000000   0.100000   0.050000   5.000000   0.000000  
SUB-3728         3.000000   0.100000   0.050000   5.000000   0.000000  