[TITLE]
;;Project Title/Notes

[OPTIONS]
;;Option             Value
FLOW_UNITS           CFS
INFILTRATION         HORTON
FLOW_ROUTING         DYNWAVE
LINK_OFFSETS         DEPTH
MIN_SLOPE            0
ALLOW_PONDING        NO
SKIP_STEADY_STATE    NO

START_DATE           01/01/2002
START_TIME           00:00:00
REPORT_START_DATE    01/01/2002
REPORT_START_TIME    00:00:00
END_DATE             01/02/2002
END_TIME             23:00:00
SWEEP_START          01/01
SWEEP_END            12/31
DRY_DAYS             5.000000
REPORT_STEP          00:05:00
WET_STEP             01:00:00
DRY_STEP             01:00:00
ROUTING_STEP         0:01:00 

INERTIAL_DAMPING     NONE
NORMAL_FLOW_LIMITED  BOTH
FORCE_MAIN_EQUATION  H-W
VARIABLE_STEP        0.75
LENGTHENING_STEP     10
MIN_SURFAREA         12.557
MAX_TRIALS           8
HEAD_TOLERANCE       0.005
SYS_FLOW_TOL         5
LAT_FLOW_TOL         5
MINIMUM_STEP         0.5
THREADS              1

[EVAPORATION]
;;Data Source    Parameters
;;-------------- ----------------
CONSTANT         0.0
DRY_ONLY         NO

[JUNCTIONS]
;;Name           Elevation  MaxDepth   InitDepth  SurDepth   Aponded   
;;-------------- ---------- ---------- ---------- ---------- ----------
2                4864.750000 14.030000  0.000000   0.000000   0.000000  
3                4853.900000 16.530000  0.000000   0.000000   0.000000  
5                4847.360000 16.720000  0.000000   0.000000   0.000000  
7                4840.940000 16.460000  0.000000   0.000000   0.000000  
9                4831.950000 13.890000  0.000000   0.000000   0.000000  
11               4810.340000 14.100000  0.000000   0.000000   0.000000  
13               4793.360000 14.400000  0.000000   0.000000   0.000000  
15               4781.930000 13.710000  0.000000   0.000000   0.000000  
17               4771.240000 15.840000  0.000000   0.000000   0.000000  
19               4761.930000 14.760000  0.000000   0.000000   0.000000  
21               4753.160000 15.430000  0.000000   0.000000   0.000000  
23               4746.560000 12.530000  0.000000   0.000000   0.000000  
25               4736.400000 14.140000  0.000000   0.000000   0.000000  
27               4729.650000 13.000000  0.000000   0.000000   0.000000  
29               4728.540000 12.150000  0.000000   0.000000   0.000000  
31               4717.960000 12.330000  0.000000   0.000000   0.000000  
33               4715.670000 11.580000  0.000000   0.000000   0.000000  
35               4693.060000 11.500000  0.000000   0.000000   0.000000  
37               4686.930000 13.770000  0.000000   0.000000   0.000000  
39               4681.230000 13.330000  0.000000   0.000000   0.000000  
41               4675.840000 12.830000  0.000000   0.000000   0.000000  
43               4669.490000 12.920000  0.000000   0.000000   0.000000  
45               4666.680000 15.670000  0.000000   0.000000   0.000000  
47               4663.450000 15.250000  0.000000   0.000000   0.000000  
49               4660.740000 12.580000  0.000000   0.000000   0.000000  
51               4655.140000 10.670000  0.000000   0.000000   0.000000  
53               4645.950000 13.080000  0.000000   0.000000   0.000000  
55               4644.720000 11.170000  0.000000   0.000000   0.000000  
57               4634.610000 14.920000  0.000000   0.000000   0.000000  
59               4615.380000 15.720000  0.000000   0.000000   0.000000  
61               4615.120000 16.170000  0.000000   0.000000   0.000000  
63               4609.570000 13.830000  0.000000   0.000000   0.000000  
65               4601.670000 12.420000  0.000000   0.000000   0.000000  
67               4593.200000 7.670000   0.000000   0.000000   0.000000  
69               4586.800000 8.250000   0.000000   0.000000   0.000000  
71               4584.530000 8.250000   0.000000   0.000000   0.000000  
73               4574.550000 12.750000  0.000000   0.000000   0.000000  
74               4565.040000 11.250000  0.000000   0.000000   0.000000  
76               4555.900000 12.250000  0.000000   0.000000   0.000000  
78               4543.740000 15.920000  0.000000   0.000000   0.000000  
80               4538.390000 12.920000  0.000000   0.000000   0.000000  
82               4531.450000 13.030000  0.000000   0.000000   0.000000  
84               4524.500000 12.500000  0.000000   0.000000   0.000000  
85               4516.850000 14.670000  0.000000   0.000000   0.000000  
87               4512.360000 17.040000  0.000000   0.000000   0.000000  
89               4511.770000 17.750000  0.000000   0.000000   0.000000  
91               4505.220000 18.000000  0.000000   0.000000   0.000000  
93               4501.250000 15.580000  0.000000   0.000000   0.000000  
95               4497.080000 12.670000  0.000000   0.000000   0.000000  
97               4496.360000 13.000000  0.000000   0.000000   0.000000  
99               4487.330000 14.580000  0.000000   0.000000   0.000000  
101              4481.740000 14.000000  0.000000   0.000000   0.000000  
103              4475.040000 14.500000  0.000000   0.000000   0.000000  
105              4465.880000 15.330000  0.000000   0.000000   0.000000  
107              4459.010000 15.330000  0.000000   0.000000   0.000000  
109              4456.700000 16.000000  0.000000   0.000000   0.000000  
111              4451.040000 11.570000  0.000000   0.000000   0.000000  
113              4445.320000 10.330000  0.000000   0.000000   0.000000  
115              4439.990000 10.830000  0.000000   0.000000   0.000000  
117              4438.562000 10.980000  0.000000   0.000000   0.000000  
119              4438.460000 11.000000  0.000000   0.000000   0.000000  
121              4535.760000 15.670000  0.000000   0.000000   0.000000  
123              4529.410000 15.070000  0.000000   0.000000   0.000000  
125              4524.760000 13.170000  0.000000   0.000000   0.000000  
127              4520.100000 11.580000  0.000000   0.000000   0.000000  
129              4510.030000 20.670000  0.000000   0.000000   0.000000  
131              4508.590000 17.500000  0.000000   0.000000   0.000000  
133              4505.360000 13.170000  0.000000   0.000000   0.000000  
135              4500.520000 12.580000  0.000000   0.000000   0.000000  
137              4494.910000 11.830000  0.000000   0.000000   0.000000  
139              4493.820000 11.830000  0.000000   0.000000   0.000000  
141              4489.080000 12.330000  0.000000   0.000000   0.000000  
143              4483.890000 12.580000  0.000000   0.000000   0.000000  
145              4478.460000 11.000000  0.000000   0.000000   0.000000  
146              4476.010000 12.420000  0.000000   0.000000   0.000000  
148              4473.840000 12.250000  0.000000   0.000000   0.000000  
150              4471.540000 11.670000  0.000000   0.000000   0.000000  
152              4470.280000 12.250000  0.000000   0.000000   0.000000  
154              4470.180000 12.170000  0.000000   0.000000   0.000000  
156              4467.530000 12.000000  0.000000   0.000000   0.000000  
158              4465.670000 12.000000  0.000000   0.000000   0.000000  
160              4463.420000 12.170000  0.000000   0.000000   0.000000  
162              4461.650000 11.350000  0.000000   0.000000   0.000000  
164              4460.570000 12.000000  0.000000   0.000000   0.000000  
166              4459.040000 12.500000  0.000000   0.000000   0.000000  
168              4457.890000 12.920000  0.000000   0.000000   0.000000  
170              4455.100000 12.500000  0.000000   0.000000   0.000000  
172              4452.030000 12.170000  0.000000   0.000000   0.000000  
174              4447.473000 11.760000  0.000000   0.000000   0.000000  
176              4445.200000 9.500000   0.000000   0.000000   0.000000  
178              4442.500000 9.920000   0.000000   0.000000   0.000000  
180              4438.020000 12.500000  0.000000   0.000000   0.000000  
182              4437.400000 13.000000  0.000000   0.000000   0.000000  
184              4436.770000 13.080000  0.000000   0.000000   0.000000  
186              4435.980000 13.750000  0.000000   0.000000   0.000000  
188              4435.290000 15.250000  0.000000   0.000000   0.000000  
190              4434.490000 16.750000  0.000000   0.000000   0.000000  
192              4435.590000 15.830000  0.000000   0.000000   0.000000  
193              4428.420000 11.480000  0.000000   0.000000   0.000000  
195              4422.650000 17.250000  0.000000   0.000000   0.000000  
197              4415.980000 16.500000  0.000000   0.000000   0.000000  
199              4412.070000 12.330000  0.000000   0.000000   0.000000  
201              4400.370000 13.340000  0.000000   0.000000   0.000000  
203              4398.440000 13.660000  0.000000   0.000000   0.000000  
205              4391.080000 15.000000  0.000000   0.000000   0.000000  
207              4390.120000 13.000000  0.000000   0.000000   0.000000  
209              4388.260000 13.000000  0.000000   0.000000   0.000000  
211              4383.700000 12.430000  0.000000   0.000000   0.000000  
213              4379.220000 12.330000  0.000000   0.000000   0.000000  
215              4375.580000 13.170000  0.000000   0.000000   0.000000  
217              4373.940000 13.670000  0.000000   0.000000   0.000000  
219              4372.130000 12.250000  0.000000   0.000000   0.000000  
221              4366.820000 13.420000  0.000000   0.000000   0.000000  
223              4366.300000 11.250000  0.000000   0.000000   0.000000  
225              4366.160000 10.580000  0.000000   0.000000   0.000000  
227              4356.840000 15.500000  0.000000   0.000000   0.000000  
229              4355.710000 12.250000  0.000000   0.000000   0.000000  
231              4347.010000 13.080000  0.000000   0.000000   0.000000  
233              4346.300000 10.660000  0.000000   0.000000   0.000000  
235              4342.640000 11.830000  0.000000   0.000000   0.000000  
237              4340.580000 11.160000  0.000000   0.000000   0.000000  
239              4336.200000 13.000000  0.000000   0.000000   0.000000  
241              4320.840000 16.840000  0.000000   0.000000   0.000000  
243              4320.390000 17.290000  0.000000   0.000000   0.000000  
244              4317.280000 16.830000  0.000000   0.000000   0.000000  
246              4315.240000 15.250000  0.000000   0.000000   0.000000  
248              4312.090000 12.170000  0.000000   0.000000   0.000000  
250              4289.800000 18.000000  0.000000   0.000000   0.000000  
252              4281.180000 13.370000  0.000000   0.000000   0.000000  
254              4441.260000 9.500000   0.000000   0.000000   0.000000  
255              4441.910000 8.750000   0.000000   0.000000   0.000000  
257              4439.090000 11.500000  0.000000   0.000000   0.000000  
258              4438.870000 11.830000  0.000000   0.000000   0.000000  
260              4438.500000 11.750000  0.000000   0.000000   0.000000  
262              4438.480000 12.060000  0.000000   0.000000   0.000000  
265              4440.930000 10.670000  0.000000   0.000000   0.000000  
267              4440.220000 10.670000  0.000000   0.000000   0.000000  
269              4439.940000 10.830000  0.000000   0.000000   0.000000  
271              4439.420000 10.830000  0.000000   0.000000   0.000000  
273              4439.120000 11.170000  0.000000   0.000000   0.000000  
275              4438.620000 11.580000  0.000000   0.000000   0.000000  
277              4438.080000 12.750000  0.000000   0.000000   0.000000  
279              4436.740000 14.250000  0.000000   0.000000   0.000000  
281              4436.340000 14.580000  0.000000   0.000000   0.000000  
283              4429.480000 15.010000  0.000000   0.000000   0.000000  
285              4430.230000 11.000000  0.000000   0.000000   0.000000  
287              4424.590000 7.420000   0.000000   0.000000   0.000000  
289              4762.370000 10.750000  0.000000   0.000000   0.000000  
290              4748.550000 11.000000  0.000000   0.000000   0.000000  
292              4735.740000 9.330000   0.000000   0.000000   0.000000  
294              4723.320000 10.680000  0.000000   0.000000   0.000000  
296              4710.900000 10.330000  0.000000   0.000000   0.000000  
297              4707.640000 10.000000  0.000000   0.000000   0.000000  
299              4700.610000 10.170000  0.000000   0.000000   0.000000  
301              4688.690000 9.080000   0.000000   0.000000   0.000000  
303              4688.020000 9.000000   0.000000   0.000000   0.000000  
305              4681.040000 9.170000   0.000000   0.000000   0.000000  
307              4676.390000 10.610000  0.000000   0.000000   0.000000  
309              4672.960000 9.580000   0.000000   0.000000   0.000000  
311              4663.650000 9.830000   0.000000   0.000000   0.000000  
313              4657.580000 8.250000   0.000000   0.000000   0.000000  
315              4651.800000 6.320000   0.000000   0.000000   0.000000  
317              4649.900000 5.850000   0.000000   0.000000   0.000000  
319              4635.480000 7.420000   0.000000   0.000000   0.000000  
321              4627.610000 7.130000   0.000000   0.000000   0.000000  
323              4627.560000 12.170000  0.000000   0.000000   0.000000  
325              4624.880000 14.580000  0.000000   0.000000   0.000000  
327              4624.240000 15.180000  0.000000   0.000000   0.000000  
329              4622.700000 14.420000  0.000000   0.000000   0.000000  
331              4621.070000 14.420000  0.000000   0.000000   0.000000  
333              4620.210000 13.250000  0.000000   0.000000   0.000000  
335              4619.100000 13.670000  0.000000   0.000000   0.000000  
337              4617.790000 13.500000  0.000000   0.000000   0.000000  
339              4616.720000 14.250000  0.000000   0.000000   0.000000  
342              4716.000000 11.420000  0.000000   0.000000   0.000000  
344              4716.980000 11.580000  0.000000   0.000000   0.000000  
346              4717.530000 11.580000  0.000000   0.000000   0.000000  
348              4719.680000 11.580000  0.000000   0.000000   0.000000  
350              4720.650000 13.080000  0.000000   0.000000   0.000000  
352              4723.940000 15.250000  0.000000   0.000000   0.000000  
354              4729.320000 15.500000  0.000000   0.000000   0.000000  
356              4733.960000 16.750000  0.000000   0.000000   0.000000  
358              4735.520000 19.430000  0.000000   0.000000   0.000000  
360              4746.060000 14.580000  0.000000   0.000000   0.000000  
362              4772.840000 9.400000   0.000000   0.000000   0.000000  
363              4772.390000 9.420000   0.000000   0.000000   0.000000  
365              4771.360000 10.000000  0.000000   0.000000   0.000000  
367              4770.080000 14.330000  0.000000   0.000000   0.000000  
369              4768.530000 13.250000  0.000000   0.000000   0.000000  
371              4766.640000 14.520000  0.000000   0.000000   0.000000  
373              4746.950000 12.050000  0.000000   0.000000   0.000000  
374              4737.610000 11.830000  0.000000   0.000000   0.000000  
376              4727.610000 12.500000  0.000000   0.000000   0.000000  
378              4725.050000 12.000000  0.000000   0.000000   0.000000  
380              4714.130000 12.920000  0.000000   0.000000   0.000000  
382              4701.530000 14.800000  0.000000   0.000000   0.000000  
386              4683.620000 14.830000  0.000000   0.000000   0.000000  
388              4672.130000 12.870000  0.000000   0.000000   0.000000  
390              4616.040000 14.670000  0.000000   0.000000   0.000000  
391              4614.000000 16.000000  0.000000   0.000000   0.000000  
393              4598.270000 14.000000  0.000000   0.000000   0.000000  
394              4591.100000 13.250000  0.000000   0.000000   0.000000  
399              4570.910000 12.860000  0.000000   0.000000   0.000000  
401              4569.410000 17.840000  0.000000   0.000000   0.000000  
403              4567.550000 17.780000  0.000000   0.000000   0.000000  
405              4565.600000 15.480000  0.000000   0.000000   0.000000  
407              4564.050000 13.640000  0.000000   0.000000   0.000000  
409              4562.470000 13.320000  0.000000   0.000000   0.000000  
411              4560.620000 13.480000  0.000000   0.000000   0.000000  
422              4564.130000 10.970000  0.000000   0.000000   0.000000  
424              4553.730000 10.440000  0.000000   0.000000   0.000000  
426              4542.110000 16.810000  0.000000   0.000000   0.000000  
428              4537.930000 20.600000  0.000000   0.000000   0.000000  
430              4533.710000 15.620000  0.000000   0.000000   0.000000  
432              4531.280000 13.250000  0.000000   0.000000   0.000000  
434              4520.400000 16.500000  0.000000   0.000000   0.000000  
436              4519.410000 11.750000  0.000000   0.000000   0.000000  
438              4518.730000 6.170000   0.000000   0.000000   0.000000  
440              4517.800000 6.750000   0.000000   0.000000   0.000000  
442              4517.350000 6.830000   0.000000   0.000000   0.000000  
444              4516.720000 13.000000  0.000000   0.000000   0.000000  
446              4516.610000 13.250000  0.000000   0.000000   0.000000  
448              4515.840000 11.830000  0.000000   0.000000   0.000000  
450              4515.820000 7.860000   0.000000   0.000000   0.000000  
452              4515.630000 8.370000   0.000000   0.000000   0.000000  
453              4515.440000 9.050000   0.000000   0.000000   0.000000  
455              4515.190000 11.790000  0.000000   0.000000   0.000000  
457              4514.930000 13.820000  0.000000   0.000000   0.000000  
459              4514.870000 14.040000  0.000000   0.000000   0.000000  
461              4514.270000 14.750000  0.000000   0.000000   0.000000  
463              4513.500000 15.100000  0.000000   0.000000   0.000000  
466              4550.550000 8.420000   0.000000   0.000000   0.000000  
467              4549.330000 11.750000  0.000000   0.000000   0.000000  
469              4548.310000 12.250000  0.000000   0.000000   0.000000  
471              4546.820000 12.000000  0.000000   0.000000   0.000000  
473              4544.610000 12.920000  0.000000   0.000000   0.000000  
475              4541.110000 19.260000  0.000000   0.000000   0.000000  
478              4528.950000 7.580000   0.000000   0.000000   0.000000  
479              4527.340000 11.170000  0.000000   0.000000   0.000000  
482              4532.270000 25.330000  0.000000   0.000000   0.000000  
483              4528.480000 24.000000  0.000000   0.000000   0.000000  
485              4525.020000 17.170000  0.000000   0.000000   0.000000  
487              4524.480000 17.930000  0.000000   0.000000   0.000000  
489              4523.830000 17.580000  0.000000   0.000000   0.000000  
491              4522.850000 15.420000  0.000000   0.000000   0.000000  
493              4521.690000 19.170000  0.000000   0.000000   0.000000  
496              4496.930000 13.250000  0.000000   0.000000   0.000000  
497              4487.100000 12.900000  0.000000   0.000000   0.000000  
499              4477.260000 12.840000  0.000000   0.000000   0.000000  
500              4476.360000 12.250000  0.000000   0.000000   0.000000  
502              4475.540000 12.330000  0.000000   0.000000   0.000000  
504              4470.990000 12.500000  0.000000   0.000000   0.000000  
506              4465.070000 12.580000  0.000000   0.000000   0.000000  
508              4462.050000 12.090000  0.000000   0.000000   0.000000  
510              4461.200000 12.000000  0.000000   0.000000   0.000000  
512              4458.620000 13.000000  0.000000   0.000000   0.000000  
514              4454.540000 11.500000  0.000000   0.000000   0.000000  
516              4451.160000 10.670000  0.000000   0.000000   0.000000  
518              4447.370000 13.000000  0.000000   0.000000   0.000000  
520              4443.080000 13.080000  0.000000   0.000000   0.000000  
525              4431.280000 14.330000  0.000000   0.000000   0.000000  
527              4428.410000 12.330000  0.000000   0.000000   0.000000  
529              4420.570000 12.000000  0.000000   0.000000   0.000000  
531              4412.650000 11.250000  0.000000   0.000000   0.000000  
533              4406.420000 11.330000  0.000000   0.000000   0.000000  
535              4404.470000 11.670000  0.000000   0.000000   0.000000  
537              4403.450000 11.250000  0.000000   0.000000   0.000000  
539              4402.670000 11.150000  0.000000   0.000000   0.000000  
541              4400.180000 12.000000  0.000000   0.000000   0.000000  
543              4391.380000 14.500000  0.000000   0.000000   0.000000  
546              4368.980000 11.500000  0.000000   0.000000   0.000000  
547              4365.380000 11.500000  0.000000   0.000000   0.000000  
549              4358.780000 13.450000  0.000000   0.000000   0.000000  
551              4354.890000 13.000000  0.000000   0.000000   0.000000  
553              4353.040000 10.830000  0.000000   0.000000   0.000000  
555              4346.830000 13.420000  0.000000   0.000000   0.000000  
557              4345.890000 13.580000  0.000000   0.000000   0.000000  
559              4339.040000 12.830000  0.000000   0.000000   0.000000  
561              4337.300000 12.080000  0.000000   0.000000   0.000000  
563              4330.960000 12.410000  0.000000   0.000000   0.000000  
565              4522.210000 10.750000  0.000000   0.000000   0.000000  
566              4520.300000 10.420000  0.000000   0.000000   0.000000  
568              4516.230000 11.600000  0.000000   0.000000   0.000000  
570              4512.220000 10.420000  0.000000   0.000000   0.000000  
572              4507.520000 11.670000  0.000000   0.000000   0.000000  
574              4510.080000 17.720000  0.000000   0.000000   0.000000  
575              4509.360000 7.450000   0.000000   0.000000   0.000000  
577              4508.550000 7.530000   0.000000   0.000000   0.000000  
579              4507.760000 9.050000   0.000000   0.000000   0.000000  
582              4506.320000 10.830000  0.000000   0.000000   0.000000  
584              4505.540000 12.750000  0.000000   0.000000   0.000000  
586              4504.780000 15.170000  0.000000   0.000000   0.000000  
588              4504.270000 16.250000  0.000000   0.000000   0.000000  
590              4503.900000 16.100000  0.000000   0.000000   0.000000  
592              4364.500000 9.850000   0.000000   0.000000   0.000000  
593              4363.340000 12.750000  0.000000   0.000000   0.000000  
595              4362.830000 14.180000  0.000000   0.000000   0.000000  
597              4362.580000 14.200000  0.000000   0.000000   0.000000  
599              4361.710000 13.800000  0.000000   0.000000   0.000000  
601              4361.310000 13.940000  0.000000   0.000000   0.000000  
603              4361.130000 13.050000  0.000000   0.000000   0.000000  
605              4358.610000 13.500000  0.000000   0.000000   0.000000  
607              4360.440000 13.700000  0.000000   0.000000   0.000000  
609              4360.890000 14.450000  0.000000   0.000000   0.000000  
611              4361.800000 11.520000  0.000000   0.000000   0.000000  
613              4362.620000 8.880000   0.000000   0.000000   0.000000  
615              4362.830000 8.640000   0.000000   0.000000   0.000000  
617              4363.330000 10.180000  0.000000   0.000000   0.000000  
619              4364.170000 8.270000   0.000000   0.000000   0.000000  
621              4364.780000 6.230000   0.000000   0.000000   0.000000  
623              4365.650000 7.000000   0.000000   0.000000   0.000000  
625              4366.270000 7.710000   0.000000   0.000000   0.000000  
627              4366.330000 7.770000   0.000000   0.000000   0.000000  
629              4366.880000 8.720000   0.000000   0.000000   0.000000  
631              4367.620000 9.900000   0.000000   0.000000   0.000000  
633              4368.490000 11.050000  0.000000   0.000000   0.000000  
635              4369.080000 12.000000  0.000000   0.000000   0.000000  
637              4372.270000 11.000000  0.000000   0.000000   0.000000  
639              4374.180000 10.400000  0.000000   0.000000   0.000000  
641              4376.270000 11.500000  0.000000   0.000000   0.000000  
643              4378.460000 11.950000  0.000000   0.000000   0.000000  
645              4382.200000 10.500000  0.000000   0.000000   0.000000  
647              4383.940000 10.450000  0.000000   0.000000   0.000000  
649              4386.280000 10.200000  0.000000   0.000000   0.000000  
651              4388.150000 10.240000  0.000000   0.000000   0.000000  
653              4388.330000 10.150000  0.000000   0.000000   0.000000  
655              4388.540000 10.300000  0.000000   0.000000   0.000000  
657              4390.330000 10.200000  0.000000   0.000000   0.000000  
659              4393.090000 10.040000  0.000000   0.000000   0.000000  
661              4553.420000 12.000000  0.000000   0.000000   0.000000  
662              4551.780000 12.000000  0.000000   0.000000   0.000000  
664              4547.110000 8.000000   0.000000   0.000000   0.000000  
666              4545.080000 8.420000   0.000000   0.000000   0.000000  
668              4533.670000 8.830000   0.000000   0.000000   0.000000  
670              4519.340000 9.750000   0.000000   0.000000   0.000000  
672              4518.100000 9.750000   0.000000   0.000000   0.000000  
674              4513.160000 9.000000   0.000000   0.000000   0.000000  
676              4507.460000 7.750000   0.000000   0.000000   0.000000  
678              4500.700000 8.500000   0.000000   0.000000   0.000000  
680              4499.370000 8.670000   0.000000   0.000000   0.000000  
682              4494.580000 9.420000   0.000000   0.000000   0.000000  
683              4489.800000 10.250000  0.000000   0.000000   0.000000  
685              4482.720000 12.580000  0.000000   0.000000   0.000000  
687              4476.950000 12.000000  0.000000   0.000000   0.000000  
689              4472.560000 10.250000  0.000000   0.000000   0.000000  
691              4463.630000 15.000000  0.000000   0.000000   0.000000  
693              4460.520000 16.330000  0.000000   0.000000   0.000000  
695              4454.670000 15.670000  0.000000   0.000000   0.000000  
697              4448.340000 12.330000  0.000000   0.000000   0.000000  
699              4445.430000 9.670000   0.000000   0.000000   0.000000  
701              4440.370000 10.830000  0.000000   0.000000   0.000000  
703              4437.450000 10.500000  0.000000   0.000000   0.000000  
705              4431.980000 10.250000  0.000000   0.000000   0.000000  
707              4425.970000 11.050000  0.000000   0.000000   0.000000  
709              4418.480000 13.000000  0.000000   0.000000   0.000000  
711              4413.970000 12.170000  0.000000   0.000000   0.000000  
713              4408.890000 12.580000  0.000000   0.000000   0.000000  
715              4407.970000 12.500000  0.000000   0.000000   0.000000  
717              4403.730000 13.100000  0.000000   0.000000   0.000000  
719              4399.420000 10.330000  0.000000   0.000000   0.000000  
721              4393.290000 10.710000  0.000000   0.000000   0.000000  
723              4393.140000 10.860000  0.000000   0.000000   0.000000  
728              4388.610000 9.390000   0.000000   0.000000   0.000000  
730              4383.280000 7.720000   0.000000   0.000000   0.000000  
732              4378.250000 8.750000   0.000000   0.000000   0.000000  
734              4373.150000 7.850000   0.000000   0.000000   0.000000  
736              4368.020000 7.980000   0.000000   0.000000   0.000000  
738              4363.450000 8.050000   0.000000   0.000000   0.000000  
742              4354.470000 12.250000  0.000000   0.000000   0.000000  
744              4353.300000 11.900000  0.000000   0.000000   0.000000  
746              4352.260000 12.300000  0.000000   0.000000   0.000000  
748              4351.340000 12.450000  0.000000   0.000000   0.000000  
750              4345.300000 17.500000  0.000000   0.000000   0.000000  
752              4345.260000 17.200000  0.000000   0.000000   0.000000  
754              4344.030000 12.500000  0.000000   0.000000   0.000000  
756              4351.520000 8.120000   0.000000   0.000000   0.000000  
808              4287.360000 8.390000   0.000000   0.000000   0.000000  
821              4440.430000 10.330000  0.000000   0.000000   0.000000  
822              4438.910000 12.830000  0.000000   0.000000   0.000000  
824              4438.780000 12.880000  0.000000   0.000000   0.000000  
826              4438.240000 12.890000  0.000000   0.000000   0.000000  
828              4437.700000 13.200000  0.000000   0.000000   0.000000  
831              4443.050000 10.500000  0.000000   0.000000   0.000000  
832              4435.980000 11.000000  0.000000   0.000000   0.000000  
834              4429.200000 11.000000  0.000000   0.000000   0.000000  
836              4422.410000 10.580000  0.000000   0.000000   0.000000  
838              4414.540000 11.250000  0.000000   0.000000   0.000000  
840              4408.290000 11.250000  0.000000   0.000000   0.000000  
842              4403.460000 12.580000  0.000000   0.000000   0.000000  
844              4399.140000 10.580000  0.000000   0.000000   0.000000  
846              4394.620000 9.750000   0.000000   0.000000   0.000000  
848              4388.270000 11.730000  0.000000   0.000000   0.000000  
850              4382.960000 10.330000  0.000000   0.000000   0.000000  
852              4379.600000 9.830000   0.000000   0.000000   0.000000  