[OPTIONS]
;Option and Files Scenario Set: BASE, Base Simulation Options
FLOW_UNITS		MGD
INFILTRATION		HORTON
FLOW_ROUTING		DYNWAVE
LINK_OFFSETS		DEPTH
MIN_SLOPE		0.000000
ALLOW_PONDING		YES
SKIP_STEADY_STATE 	NO
IGNORE_RAINFALL		NO
IGNORE_SNOWMELT		YES
IGNORE_GROUNDWATER	YES
IGNORE_QUALITY		YES

START_DATE		11/28/2016
START_TIME		00:00
REPORT_START_DATE	11/28/2016
REPORT_START_TIME	00:00
END_DATE		12/03/2016
END_TIME		23:55
SWEEP_START		01/01
SWEEP_END		12/31
DRY_DAYS		5.000000
REPORT_STEP		00:05:00
WET_STEP		00:05:00
DRY_STEP		01:00:00
ROUTING_STEP		10

INERTIAL_DAMPING	NONE
NORMAL_FLOW_LIMITED	SLOPE
FORCE_MAIN_EQUATION	H-W
VARIABLE_STEP		0.900000
LENGTHENING_STEP	10
MIN_SURFAREA		0.000000
MAX_TRIALS		8
HEAD_TOLERANCE	0.001000
MINIMUM_STEP		0.000000


[FILES]

[RAINGAGES]
RG0	VOLUME	1.000000	1.000000	TIMESERIES	RG0		
RG1	VOLUME	1.000000	1.000000	TIMESERIES	RG1		
RG10	VOLUME	1.000000	1.000000	TIMESERIES	RG10		
RG11	VOLUME	1.000000	1.000000	TIMESERIES	RG11		
RG12	VOLUME	1.000000	1.000000	TIMESERIES	RG12		
RG13	VOLUME	1.000000	1.000000	TIMESERIES	RG13		
RG14	VOLUME	1.000000	1.000000	TIMESERIES	RG14		
RG2	VOLUME	1.000000	1.000000	TIMESERIES	RG2		
RG3	VOLUME	1.000000	1.000000	TIMESERIES	RG3		
RG4	VOLUME	1.000000	1.000000	TIMESERIES	RG4		
RG5	VOLUME	1.000000	1.000000	TIMESERIES	RG5		
RG6	VOLUME	1.000000	1.000000	TIMESERIES	RG6		
RG7	VOLUME	1.000000	1.000000	TIMESERIES	RG7		
RG8	VOLUME	1.000000	1.000000	TIMESERIES	RG8		
RG9	VOLUME	1.000000	1.000000	TIMESERIES	RG9		

[HYDROGRAPHS]
; 
1	RG1
1	ALL	Short	0.010000	2.512000	1.631000	0.100000	0.100000	0.050000
1	ALL	Medium	0.021000	7.380000	1.029000	0.100000	0.100000	0.050000
1	ALL	Long	0.022000	15.649000	1.031000	0.100000	0.100000	0.050000
; 
10	RG10
10	ALL	Short	0.024000	2.862000	0.882000	0.100000	0.100000	0.050000
10	ALL	Medium	0.022000	3.036000	1.600000	0.100000	0.100000	0.050000
10	ALL	Long	0.026000	15.655000	1.529000	0.100000	0.100000	0.050000
; 
11	RG11
11	ALL	Short	0.021000	1.214000	0.652000	0.100000	0.100000	0.050000
11	ALL	Medium	0.015000	5.176000	1.275000	0.100000	0.100000	0.050000
11	ALL	Long	0.026000	14.408000	1.583000	0.100000	0.100000	0.050000
; 
12	RG12
12	ALL	Short	0.017000	1.509000	0.982000	0.100000	0.100000	0.050000
12	ALL	Medium	0.021000	5.715000	1.397000	0.100000	0.100000	0.050000
12	ALL	Long	0.027000	14.689000	1.583000	0.100000	0.100000	0.050000
; 
13	RG13
13	ALL	Short	0.013000	2.860000	1.483000	0.100000	0.100000	0.050000
13	ALL	Medium	0.016000	8.253000	1.536000	0.100000	0.100000	0.050000
13	ALL	Long	0.016000	13.974000	1.623000	0.100000	0.100000	0.050000
; 
14	RG14
14	ALL	Short	0.013000	1.916000	0.802000	0.100000	0.100000	0.050000
14	ALL	Medium	0.018000	3.446000	1.375000	0.100000	0.100000	0.050000
14	ALL	Long	0.027000	12.927000	2.164000	0.100000	0.100000	0.050000
; 
2	RG2
2	ALL	Short	0.016000	1.545000	1.190000	0.100000	0.100000	0.050000
2	ALL	Medium	0.012000	4.521000	0.913000	0.100000	0.100000	0.050000
2	ALL	Long	0.021000	10.971000	2.764000	0.100000	0.100000	0.050000
; 
3	RG3
3	ALL	Short	0.027000	2.949000	1.646000	0.100000	0.100000	0.050000
3	ALL	Medium	0.017000	4.070000	0.791000	0.100000	0.100000	0.050000
3	ALL	Long	0.025000	16.642000	2.472000	0.100000	0.100000	0.050000
; 
4	RG4
4	ALL	Short	0.030000	2.189000	1.243000	0.100000	0.100000	0.050000
4	ALL	Medium	0.019000	6.573000	2.050000	0.100000	0.100000	0.050000
4	ALL	Long	0.012000	14.245000	2.431000	0.100000	0.100000	0.050000
; 
5	RG5
5	ALL	Short	0.024000	2.843000	0.582000	0.100000	0.100000	0.050000
5	ALL	Medium	0.020000	6.084000	1.679000	0.100000	0.100000	0.050000
5	ALL	Long	0.020000	12.457000	2.541000	0.100000	0.100000	0.050000
; 
6	RG6
6	ALL	Short	0.022000	2.718000	1.572000	0.100000	0.100000	0.050000
6	ALL	Medium	0.027000	5.789000	1.181000	0.100000	0.100000	0.050000
6	ALL	Long	0.026000	11.132000	1.490000	0.100000	0.100000	0.050000
; 
7	RG7
7	ALL	Short	0.024000	2.090000	1.051000	0.100000	0.100000	0.050000
7	ALL	Medium	0.029000	7.208000	0.766000	0.100000	0.100000	0.050000
7	ALL	Long	0.019000	16.167000	1.189000	0.100000	0.100000	0.050000
; 
8	RG8
8	ALL	Short	0.022000	1.633000	1.400000	0.100000	0.100000	0.050000
8	ALL	Medium	0.015000	4.659000	0.993000	0.100000	0.100000	0.050000
8	ALL	Long	0.027000	18.078000	1.706000	0.100000	0.100000	0.050000
; 
9	RG9
9	ALL	Short	0.013755	2.607531	1.588499	0.100000	0.100000	0.050000
9	ALL	Medium	0.012716	7.671712	1.805726	0.100000	0.100000	0.050000
9	ALL	Long	0.014810	8.229224	1.491929	0.100000	0.100000	0.050000

[TEMPERATURE]

[SUBCATCHMENTS]

[SUBAREAS]

[INFILTRATION]

[AQUIFERS]

[GROUNDWATER]

[GWF]

[SNOWPACKS]

[JUNCTIONS]
; SV-SSMH-12-64
N1	471.708633	8.416667	0.000000	0.000000	0.000000
; SV-SSMH-12-104
N10	508.000000	8.677200	0.000000	0.000000	0.000000
; PR-SSMH-15-786A
N100	586.050000	6.660000	0.000000	0.000000	0.000000
; LF-SSMH-16-903
N101	437.000000	10.000000	0.000000	0.000000	0.000000
; EW-SSMH-188-37
N102	550.789667	8.833333	0.000000	0.000000	0.000000
; CH-SSMH-18-938
N103	458.410000	19.380000	0.000000	0.000000	0.000000
; CH-SSMH-18-941
N104	484.400000	19.380000	0.000000	0.000000	0.000000
; SV-SSMH-MES-1-12
N105	363.450000	14.040000	0.000000	0.000000	0.000000
; EW-SSMH-207-29
N106	590.540000	14.300000	0.000000	0.000000	0.000000
; EW-SSMH-207-30
N107	591.860000	10.230000	0.000000	0.000000	0.000000
; EW-SSMH-207-31
N108	594.170000	8.220000	0.000000	0.000000	0.000000
; EW-SSMH-207-32
N109	596.230000	9.780000	0.000000	0.000000	0.000000
; SV-SSMH-12-201
N11	366.488667	4.583333	0.000000	0.000000	0.000000
; EW-SSMH-207-33
N110	600.830000	9.390000	0.000000	0.000000	0.000000
; EW-SSMH-207-34
N111	608.760000	8.980000	0.000000	0.000000	0.000000
; EW-SSMH-207-35
N112	616.950000	10.300000	0.000000	0.000000	0.000000
; EW-SSMH-207-36
N113	629.190000	9.900000	0.000000	0.000000	0.000000
; PR-SSMH-181-301
N114	603.860000	7.260000	0.000000	0.000000	0.000000
; PR-SSMH-40-4002
N115	604.020000	9.300000	0.000000	0.000000	0.000000
; PR-SSMH-40-4003
N116	614.910000	10.990000	0.000000	0.000000	0.000000
; PR-SSMH-204-4006
N117	627.240000	10.080000	0.000000	0.000000	0.000000
; PR-SSMH-204-4005
N118	621.700000	6.890000	0.000000	0.000000	0.000000
; PR-SSMH-40-4007
N119	631.920000	17.960000	0.000000	0.000000	0.000000
; SV-SSMH-12-202
N12	366.844467	5.333333	0.000000	0.000000	0.000000
; PR-SSMH-40-4008
N120	633.240000	21.450000	0.000000	0.000000	0.000000
; PR-SSMH-204-500
N121	620.180000	8.000000	0.000000	0.000000	0.000000
; PR-SSMH-40-4004
N122	618.290000	9.100000	0.000000	0.000000	0.000000
; SV-SSMH-17-4
N123	510.150000	7.350000	0.000000	0.000000	0.000000
; SV-SSMH-94-66
N124	481.210000	18.460000	0.000000	0.000000	0.000000
; SV-SSMH-216-13
N125	495.050000	30.050000	0.000000	0.000000	0.000000
; SV-SSMH-230-26
N126	499.900000	6.460000	0.000000	0.000000	0.000000
; SV-SSMH-230-28
N127	501.740000	5.600000	0.000000	0.000000	0.000000
; SV-SSMH-230-29
N128	502.290000	7.530000	0.000000	0.000000	0.000000
; SV-SSMH-230-30
N129	524.480000	8.700000	0.000000	0.000000	0.000000
; SV-SSMH-12-203
N13	368.957600	12.750000	0.000000	0.000000	0.000000
; SV-SSMH-230-30A
N130	525.720000	8.780000	0.000000	0.000000	0.000000
; SV-SSMH-230-23
N131	498.080000	20.890000	0.000000	0.000000	0.000000
; SV-SSMH-230-22
N132	496.350000	26.210000	0.000000	0.000000	0.000000
; SV-SSMH-230-12
N133	493.500000	28.940000	0.000000	0.000000	0.000000
; PR-SSMH-13-788
N134	597.460000	13.340000	0.000000	0.000000	0.000000
; PR-SSMH-13-329
N135	549.300000	7.220000	0.000000	0.000000	0.000000
; WS-SSMH-324-46
N136	619.140000	11.880000	0.000000	0.000000	0.000000
; WS-SSMH-324-47
N137	616.980000	10.930000	0.000000	0.000000	0.000000
; WS-SSMH-324-6
N138	615.890000	16.780000	0.000000	0.000000	0.000000
; WS-SSMH-324-5
N139	615.310000	19.930000	0.000000	0.000000	0.000000
; SV-SSMH-12-204
N14	370.153500	9.750000	0.000000	0.000000	0.000000
; WS-SSMH-324-4
N140	613.210000	17.770000	0.000000	0.000000	0.000000
; PR-SSMH-116-8
N141	584.970000	13.720000	0.000000	0.000000	0.000000
; SV-SSMH-11-95
N142	365.360000	12.260000	0.000000	0.000000	0.000000
; SV-SSMH-11-5
N143	364.520000	14.820000	0.000000	0.000000	0.000000
; SV-SSMH-11-6
N144	375.750000	6.600000	0.000000	0.000000	0.000000
; SV-SSMH-11-7
N145	382.290000	10.190000	0.000000	0.000000	0.000000
; SV-SSMH-11-8
N146	390.440000	11.240000	0.000000	0.000000	0.000000
; SV-SSMH-11-9
N147	395.220000	10.370000	0.000000	0.000000	0.000000
; SV-SSMH-11-11
N148	398.240000	11.270000	0.000000	0.000000	0.000000
; SV-SSMH-11-12
N149	410.670000	5.960000	0.000000	0.000000	0.000000
; SV-SSMH-12-205
N15	374.796567	14.583333	0.000000	0.000000	0.000000
; SV-SSMH-11-13
N150	425.090000	8.210000	0.000000	0.000000	0.000000
; SV-SSMH-11-14
N151	470.250000	2.900000	0.000000	0.000000	0.000000
; SV-SSMH-11-126
N152	492.330000	5.420000	0.000000	0.000000	0.000000
; SV-SSMH-11-15
N153	494.620000	4.460000	0.000000	0.000000	0.000000
; SV-SSMH-11-16
N154	501.740000	7.550000	0.000000	0.000000	0.000000
; SV-SSMH-11-10
N155	397.110000	11.380000	0.000000	0.000000	0.000000
; SV-SSMH-23-B
N156	465.410000	9.490000	0.000000	0.000000	0.000000
; PR-SSMH-58-77-30
N157	411.960000	18.960000	0.000000	0.000000	0.000000
; PR-SSMH-38-8
N158	523.670000	14.450000	0.000000	0.000000	0.000000
; PR-SSMH-114-14
N159	434.290000	14.700000	0.000000	0.000000	0.000000
; SV-SSMH-12-206
N16	386.778133	14.166667	0.000000	0.000000	0.000000
; PR-SSMH-85-1
N160	424.630000	22.510000	0.000000	0.000000	0.000000
; CH-SSMH-18-72-957
N161	477.990000	10.730000	0.000000	0.000000	0.000000
; CH-SSMH-18-72-947
N162	475.890000	13.250000	0.000000	0.000000	0.000000
; SV-SSMH-11-13A
N163	448.240000	6.330000	0.000000	0.000000	0.000000
; SD-SSMH-14-1021
N164	467.190000	13.040000	0.000000	0.000000	0.000000
; SD-SSMH-18-72-1025
N165	480.160000	8.870000	0.000000	0.000000	0.000000
; SD-SSMH-18-72-1023
N166	472.600000	7.520000	0.000000	0.000000	0.000000
; SD-SSMH-18-72-1024
N167	476.390000	7.750000	0.000000	0.000000	0.000000
; SD-SSMH-18-72-1022
N168	469.380000	8.310000	0.000000	0.000000	0.000000
; SD-SSMH-18-72-1026
N169	483.940000	17.940000	0.000000	0.000000	0.000000
; SV-SSMH-12-206A
N17	389.751700	11.000000	0.000000	0.000000	0.000000
; LF-SSMH-18-72-998
N170	453.020000	12.010000	0.000000	0.000000	0.000000
; LF-SSMH-18-72-999
N171	455.610000	10.170000	0.000000	0.000000	0.000000
; LF-SSMH-18-72-1000
N172	464.590000	14.340000	0.000000	0.000000	0.000000
; LF-SSMH-18-72-1001
N173	488.610000	12.470000	0.000000	0.000000	0.000000
; LF-SSMH-18-72-1003
N174	513.360000	20.550000	0.000000	0.000000	0.000000
; LF-SSMH-18-72-1004
N175	518.610000	14.170000	0.000000	0.000000	0.000000
; LF-SSMH-18-72-1005
N176	535.080000	14.870000	0.000000	0.000000	0.000000
; LF-SSMH-18-72-1006
N177	536.050000	14.790000	0.000000	0.000000	0.000000
; PR-SSMH-137-1
N178	510.640000	14.470000	0.000000	0.000000	0.000000
; LF-SSMH-16-901
N179	439.700000	11.780000	0.000000	0.000000	0.000000
; SV-SSMH-12-208
N18	406.827733	6.416667	0.000000	0.000000	0.000000
; LF-SSMH-16-902
N180	438.360000	9.920000	0.000000	0.000000	0.000000
; SD-SSMH-14-643
N181	490.210000	6.150000	0.000000	0.000000	0.000000
; SD-SSMH-14-625
N182	509.240000	9.710000	0.000000	0.000000	0.000000
; SD-SSMH-14-626
N183	530.780000	9.770000	0.000000	0.000000	0.000000
; SD-SSMH-14-627
N184	537.490000	10.950000	0.000000	0.000000	0.000000
; SD-SSMH-14-628
N185	547.610000	13.230000	0.000000	0.000000	0.000000
; SD-SSMH-14-629
N186	572.840000	7.960000	0.000000	0.000000	0.000000
; SD-SSMH-14-630
N187	580.550000	11.090000	0.000000	0.000000	0.000000
; SD-SSMH-18-72-1010
N188	437.680000	12.460000	0.000000	0.000000	0.000000
; SD-SSMH-18-72-1009
N189	427.360000	33.510000	0.000000	0.000000	0.000000
; SV-SSMH-12-209
N19	409.327933	7.916667	0.000000	0.000000	0.000000
; SD-SSMH-178-M1
N190	598.020000	6.100000	0.000000	0.000000	0.000000
; SD-SSMH-18-72-1031
N191	501.970000	9.010000	0.000000	0.000000	0.000000
; SD-SSMH-18-72-1029
N192	491.940000	1.890000	0.000000	0.000000	0.000000
; SD-SSMH-18-72-1050
N193	425.520000	16.830000	0.000000	0.000000	0.000000
; SD-SSMH-18-72-1032
N194	516.480000	10.100000	0.000000	0.000000	0.000000
; SD-SSMH-18-72-1027
N195	485.970000	7.520000	0.000000	0.000000	0.000000
; PR-SSMH-15-785
N196	571.050000	6.760000	0.000000	0.000000	0.000000
; PR-SSMH-13-71-782
N197	547.990000	9.840000	0.000000	0.000000	0.000000
; PR-SSMH-15-803
N198	605.520000	7.900000	0.000000	0.000000	0.000000
; PR-SSMH-15-769
N199	596.690000	11.530000	0.000000	0.000000	0.000000
; SV-SSMH-12-67
N2	487.243400	10.750000	0.000000	0.000000	0.000000
; SV-SSMH-12-210
N20	414.084633	8.916667	0.000000	0.000000	0.000000
; PR-SSMH-15-768
N200	593.020000	14.390000	0.000000	0.000000	0.000000
; LF-SSMH-18-72-1002
N201	504.410000	14.000000	0.000000	0.000000	0.000000
; LF-SSMH-18-72-900
N202	442.490000	9.000000	0.000000	0.000000	0.000000
; EW-SSMH-274-24
N203	507.340000	13.850000	0.000000	0.000000	0.000000
; EW-SSMH-274-25
N204	506.830000	9.890000	0.000000	0.000000	0.000000
; EW-SSMH-274-26
N205	505.070000	9.560000	0.000000	0.000000	0.000000
; EW-SSMH-274-27
N206	504.350000	10.540000	0.000000	0.000000	0.000000
; EW-SSMH-274-28
N207	497.550000	9.950000	0.000000	0.000000	0.000000
; EW-SSMH-274-30
N208	496.330000	13.660000	0.000000	0.000000	0.000000
; EW-SSMH-188-36
N209	549.510000	8.030000	0.000000	0.000000	0.000000
; SV-SSMH-12-211
N21	427.389700	10.750000	0.000000	0.000000	0.000000
; EW-SSMH-188-38
N210	552.070000	7.490000	0.000000	0.000000	0.000000
; EW-SSMH-188-39
N211	553.050000	10.000000	0.000000	0.000000	0.000000
; PR-SSMH-15-741
N212	439.870000	7.640000	0.000000	0.000000	0.000000
; PR-SSMH-15-740
N213	437.540000	6.900000	0.000000	0.000000	0.000000
; PR-SSMH-15-739
N214	432.310000	8.400000	0.000000	0.000000	0.000000
; PR-SSMH-15-738
N215	429.490000	8.870000	0.000000	0.000000	0.000000
; PR-SSMH-15-737
N216	427.500000	9.370000	0.000000	0.000000	0.000000
; PR-SSMH-15-736
N217	425.910000	8.360000	0.000000	0.000000	0.000000
; PR-SSMH-15-735
N218	422.300000	11.990000	0.000000	0.000000	0.000000
; PR-SSMH-15-734
N219	420.140000	8.450000	0.000000	0.000000	0.000000
; SV-SSMH-12-212
N22	433.252400	8.250000	0.000000	0.000000	0.000000
; PR-SSMH-15-733
N220	417.840000	8.060000	0.000000	0.000000	0.000000
; PR-SSMH-15-732
N221	415.430000	8.480000	0.000000	0.000000	0.000000
; PR-SSMH-15-731
N222	409.520000	14.620000	0.000000	0.000000	0.000000
; PR-SSMH-15-730
N223	408.620000	10.060000	0.000000	0.000000	0.000000
; PR-SSMH-15-729
N224	407.890000	11.170000	0.000000	0.000000	0.000000
; PR-SSMH-15-826
N225	411.350000	10.300000	0.000000	0.000000	0.000000
; PR-PFV-15-PFV#1
N226	411.450000	9.960000	0.000000	0.000000	0.000000
; PR-SSMH-15-827
N227	412.200000	11.300000	0.000000	0.000000	0.000000
; PR-SSMH-15-829
N228	416.920000	7.650000	0.000000	0.000000	0.000000
; PR-SSMH-15-805
N229	438.940000	5.630000	0.000000	0.000000	0.000000
; SV-SSMH-12-213
N23	458.161733	11.916667	0.000000	0.000000	0.000000
; PR-SSMH-15-806
N230	443.180000	5.560000	0.000000	0.000000	0.000000
; PR-SSMH-15-807
N231	448.520000	10.760000	0.000000	0.000000	0.000000
; PR-SSMH-15-808
N232	451.260000	8.790000	0.000000	0.000000	0.000000
; PR-SSMH-15-809
N233	464.600000	4.950000	0.000000	0.000000	0.000000
; PR-SSMH-15-810
N234	467.100000	14.000000	0.000000	0.000000	0.000000
; PR-SSMH-15-811
N235	471.430000	11.200000	0.000000	0.000000	0.000000
; PR-SSMH-15-812
N236	477.560000	9.320000	0.000000	0.000000	0.000000
; PR-SSMH-15-757
N237	537.310000	11.540000	0.000000	0.000000	0.000000
; PR-SSMH-15-756
N238	526.510000	8.530000	0.000000	0.000000	0.000000
; PR-SSMH-15-755
N239	519.630000	6.820000	0.000000	0.000000	0.000000
; SV-SSMH-12-214
N24	459.310800	17.000000	0.000000	0.000000	0.000000
; PR-SSMH-15-912
N240	486.800000	13.500000	0.000000	0.000000	0.000000
; PR-SSMH-15-911
N241	481.130000	26.380000	0.000000	0.000000	0.000000
; PR-SSMH-15-908
N242	449.370000	14.470000	0.000000	0.000000	0.000000
; PR-SSMH-114-15
N243	441.480000	12.740000	0.000000	0.000000	0.000000
; PR-SSMH-15-830
N244	418.460000	10.330000	0.000000	0.000000	0.000000
; PR-SSMH-15-831
N245	419.730000	10.150000	0.000000	0.000000	0.000000
; PR-SSMH-15-832
N246	420.190000	11.900000	0.000000	0.000000	0.000000
; PR-SSMH-15-833
N247	420.740000	10.640000	0.000000	0.000000	0.000000
; PR-SSMH-15-834
N248	422.280000	10.100000	0.000000	0.000000	0.000000
; PR-SSMH-15-835
N249	423.620000	11.260000	0.000000	0.000000	0.000000
; SV-SSMH-12-215
N25	460.994800	12.000000	0.000000	0.000000	0.000000
; PR-SSMH-15-835B
N250	424.160000	11.280000	0.000000	0.000000	0.000000
; PR-SSMH-15-836
N251	427.060000	12.060000	0.000000	0.000000	0.000000
; PR-SSMH-15-763
N252	557.700000	12.010000	0.000000	0.000000	0.000000
; PR-SSMH-15-762
N253	552.240000	11.270000	0.000000	0.000000	0.000000
; PR-SSMH-15-761
N254	549.060000	10.170000	0.000000	0.000000	0.000000
; PR-SSMH-15-760
N255	544.960000	9.060000	0.000000	0.000000	0.000000
; PR-SSMH-15-759
N256	541.050000	10.070000	0.000000	0.000000	0.000000
; PR-SSMH-15-758
N257	539.520000	10.520000	0.000000	0.000000	0.000000
; PR-SSMH-15-754
N258	513.820000	5.160000	0.000000	0.000000	0.000000
; SV-SSMH-12-25
N259	506.440000	9.540000	0.000000	0.000000	0.000000
; SD-SSMH-14-642
N26	470.994300	5.000000	0.000000	0.000000	0.000000
; SV-SSMH-12-24
N260	505.610000	8.710000	0.000000	0.000000	0.000000
; SV-SSMH-12-23
N261	482.380000	6.680000	0.000000	0.000000	0.000000
; SV-SSMH-12-22
N262	473.100000	8.080000	0.000000	0.000000	0.000000
; SV-SSMH-12-21
N263	446.760000	7.670000	0.000000	0.000000	0.000000
; SV-SSMH-12-20
N264	443.540000	8.660000	0.000000	0.000000	0.000000
; SV-SSMH-12-18
N265	411.360000	9.230000	0.000000	0.000000	0.000000
; SV-SSMH-12-17
N266	394.290000	14.940000	0.000000	0.000000	0.000000
; SV-SSMH-15-703
N267	423.800000	12.650000	0.000000	0.000000	0.000000
; SV-SSMH-15-704
N268	455.640000	9.340000	0.000000	0.000000	0.000000
; SV-SSMH-15-705
N269	467.300000	9.100000	0.000000	0.000000	0.000000
; PR-SSMH-15-715
N27	395.090000	15.239300	0.000000	0.000000	0.000000
; SV-SSMH-15-706
N270	479.700000	13.050000	0.000000	0.000000	0.000000
; SV-SSMH-15-707
N271	495.270000	20.460000	0.000000	0.000000	0.000000
; SV-SSMH-15-708
N272	512.390000	21.410000	0.000000	0.000000	0.000000
; SV-SSMH-15-709
N273	515.850000	9.810000	0.000000	0.000000	0.000000
; SV-SSMH-15-710
N274	523.260000	7.410000	0.000000	0.000000	0.000000
; PR-SSMH-73-A
N275	396.010000	13.750000	0.000000	0.000000	0.000000
; PR-SSMH-15-716
N276	395.910000	11.080000	0.000000	0.000000	0.000000
; SV-SSMH-15-702
N277	400.710000	9.910000	0.000000	0.000000	0.000000
; SV-SSMH-12-4A
N278	364.720000	18.210000	0.000000	0.000000	0.000000
; SV-SSMH-12-95A
N279	364.810000	13.420000	0.000000	0.000000	0.000000
; PR-SSMH-15-746
N28	462.345467	9.583333	0.000000	0.000000	0.000000
; SV-SSMH-12-3
N280	363.640000	15.350000	0.000000	0.000000	0.000000
; SV-SSMH-12-2
N281	363.200000	13.950000	0.000000	0.000000	0.000000
; SV-SSMH-12-101
N282	384.290000	8.960000	0.000000	0.000000	0.000000
; CH-SSMH-192-865
N283	453.250000	8.700000	0.000000	0.000000	0.000000
; PR-SSMH-15-742
N284	444.310000	7.080000	0.000000	0.000000	0.000000
; PR-SSMH-15-743
N285	448.540000	6.860000	0.000000	0.000000	0.000000
; PR-SSMH-15-744
N286	450.800000	7.740000	0.000000	0.000000	0.000000
; PR-SSMH-15-745
N287	455.560000	8.070000	0.000000	0.000000	0.000000
; PR-SSMH-195-17
N288	459.580000	7.510000	0.000000	0.000000	0.000000
; PR-SSMH-15-747
N289	465.020000	5.250000	0.000000	0.000000	0.000000
; PR-SSMH-15-766
N29	578.471433	9.166667	0.000000	0.000000	0.000000
; PR-SSMH-15-748
N290	469.810000	13.130000	0.000000	0.000000	0.000000
; PR-SSMH-15-749
N291	473.110000	9.690000	0.000000	0.000000	0.000000
; PR-SSMH-15-776
N292	476.490000	11.820000	0.000000	0.000000	0.000000
; PR-SSMH-15-777
N293	488.980000	6.080000	0.000000	0.000000	0.000000
; PR-SSMH-15-778
N294	503.140000	16.910000	0.000000	0.000000	0.000000
; PR-SSMH-15-779
N295	521.300000	6.300000	0.000000	0.000000	0.000000
; PR-SSMH-15-780
N296	523.610000	8.220000	0.000000	0.000000	0.000000
; PR-SSMH-15-781
N297	535.250000	7.080000	0.000000	0.000000	0.000000
; PR-SSMH-15-750
N298	483.710000	6.230000	0.000000	0.000000	0.000000
; PR-SSMH-15-751
N299	488.200000	7.300000	0.000000	0.000000	0.000000
; SV-SSMH-12-68
N3	489.652933	9.416667	0.000000	0.000000	0.000000
; PR-SSMH-15-767
N30	584.906000	8.166900	0.000000	0.000000	0.000000
; PR-SSMH-15-752
N300	497.900000	6.610000	0.000000	0.000000	0.000000
; PR-SSMH-15-753
N301	508.910000	6.470000	0.000000	0.000000	0.000000
; PR-SSMH-15-727
N302	406.550000	10.670000	0.000000	0.000000	0.000000
; PR-SSMH-15-726
N303	405.910000	10.020000	0.000000	0.000000	0.000000
; PR-SSMH-15-725
N304	405.010000	10.160000	0.000000	0.000000	0.000000
; PR-SSMH-15-723
N305	403.670000	9.440000	0.000000	0.000000	0.000000
; PR-SSMH-15-721
N306	402.180000	10.280000	0.000000	0.000000	0.000000
; PR-SSMH-15-719
N307	400.880000	7.940000	0.000000	0.000000	0.000000
; PR-SSMH-15-718
N308	400.050000	10.360000	0.000000	0.000000	0.000000
; PR-SSMH-15-717
N309	399.480000	7.490000	0.000000	0.000000	0.000000
; PR-SSMH-15-901
N31	408.920267	9.083333	0.000000	0.000000	0.000000
; PR-SSMH-58-77-1
N310	399.470000	7.230000	0.000000	0.000000	0.000000
; SV-SSMH-MES1-16
N311	386.340000	13.940000	0.000000	0.000000	0.000000
; SV-SSMH-MES1-15
N312	380.810000	12.500000	0.000000	0.000000	0.000000
; SV-SSMH-MES1-14
N313	370.930000	11.590000	0.000000	0.000000	0.000000
; SV-SSMH-MES1-13
N314	365.360000	12.670000	0.000000	0.000000	0.000000
; SV-SSMH-MES1-11
N315	359.180000	3.790000	0.000000	0.000000	0.000000
; SV-SSMH-MES1-10
N316	350.240000	5.780000	0.000000	0.000000	0.000000
; SV-SSMH-MES1-9
N317	348.470000	5.550000	0.000000	0.000000	0.000000
; PR-SSMH-15-764
N318	565.700000	7.810000	0.000000	0.000000	0.000000
; PR-SSMH-15-765
N319	572.690000	7.390000	0.000000	0.000000	0.000000
; PR-SSMH-15-902
N32	410.802800	9.000000	0.000000	0.000000	0.000000
; PR-SSMH-116-1
N320	562.540000	8.540000	0.000000	0.000000	0.000000
; EW-SSMH-207-18
N321	576.220000	13.200000	0.000000	0.000000	0.000000
; EW-SSMH-207-17
N322	574.440000	10.800000	0.000000	0.000000	0.000000
; EW-SSMH-207-16
N323	567.030000	6.190000	0.000000	0.000000	0.000000
; EW-SSMH-207-15
N324	562.910000	8.580000	0.000000	0.000000	0.000000
; EW-SSMH-207-42
N325	645.730000	3.630000	0.000000	0.000000	0.000000
; EW-SSMH-207-A-20
N326	652.400000	5.330000	0.000000	0.000000	0.000000
; EW-SSMH-207-A-22
N327	643.120000	18.370000	0.000000	0.000000	0.000000
; EW-SSMH-40-4010
N328	637.280000	23.940000	0.000000	0.000000	0.000000
; PR-SSMH-15-772
N329	608.640000	7.560000	0.000000	0.000000	0.000000
; PR-SSMH-15-903
N33	412.663833	9.666667	0.000000	0.000000	0.000000
; PR-SSMH-15-774
N330	624.730000	5.740000	0.000000	0.000000	0.000000
; PR-SSMH-15-905
N331	429.280000	7.850000	0.000000	0.000000	0.000000
; PR-SSMH-18-72-916
N332	428.920000	13.360000	0.000000	0.000000	0.000000
; PR-SSMH-18-72-917
N333	429.530000	12.990000	0.000000	0.000000	0.000000
; CH-SSMH-18-72-942
N334	485.210000	16.080000	0.000000	0.000000	0.000000
; CH-SSMH-18-72-549
N335	484.790000	6.740000	0.000000	0.000000	0.000000
; LF-SSMH-18-72-956
N336	554.170000	14.670000	0.000000	0.000000	0.000000
; LF-SSMH-18-72-955
N337	545.420000	20.810000	0.000000	0.000000	0.000000
; PR-SSMH-116-5
N338	585.610000	13.740000	0.000000	0.000000	0.000000
; SD-SSMH-14-631
N339	586.500000	12.680000	0.000000	0.000000	0.000000
; PR-SSMH-15-904
N34	417.195933	10.666667	0.000000	0.000000	0.000000
; EW-SSMH-40-4009
N340	635.700000	24.360000	0.000000	0.000000	0.000000
; SV-SSMH-12-105
N341	508.250000	9.330000	0.000000	0.000000	0.000000
; SV-SSMH-12-106
N342	508.420000	10.710000	0.000000	0.000000	0.000000
; SV-SSMH-12-107
N343	509.290000	10.300000	0.000000	0.000000	0.000000
; SV-SSMH-12-108
N344	513.370000	5.700000	0.000000	0.000000	0.000000
; PR-SSMH-15-770
N345	597.440000	12.710000	0.000000	0.000000	0.000000
; SV-SSMH-11-69-103
N346	406.860000	16.900000	0.000000	0.000000	0.000000
; SV-SSMH-12-142
N347	416.080000	14.590000	0.000000	0.000000	0.000000
; SV-SSMH-23-142B
N348	431.260000	7.810000	0.000000	0.000000	0.000000
; SV-SSMH-23-142C
N349	446.170000	13.520000	0.000000	0.000000	0.000000
; PR-SSMH-15-906
N35	439.428767	10.583333	0.000000	0.000000	0.000000
; PR-SSMH-116-4
N350	579.910000	10.290000	0.000000	0.000000	0.000000
; PR-SSMH-116-3
N351	572.990000	8.360000	0.000000	0.000000	0.000000
; PR-SSMH-116-11
N352	589.510000	10.770000	0.000000	0.000000	0.000000
; PR-SSMH-116-12
N353	601.160000	9.390000	0.000000	0.000000	0.000000
; PR-SSMH-38-1
N354	459.320000	8.380000	0.000000	0.000000	0.000000
; PR-SSMH-15-787
N355	594.040000	5.810000	0.000000	0.000000	0.000000
; SV-SSMH-23-142A
N356	423.190000	14.090000	0.000000	0.000000	0.000000
; SV-SSMH-15-711
N357	541.490000	7.600000	0.000000	0.000000	0.000000
; SV-SSMH-15-712
N358	542.800000	10.460000	0.000000	0.000000	0.000000
; SV-SSMH-15-713
N359	545.590000	16.110000	0.000000	0.000000	0.000000
; PR-SSMH-15-907
N36	444.017967	9.833333	0.000000	0.000000	0.000000
; SV-SSMH-15-714
N360	549.970000	9.660000	0.000000	0.000000	0.000000
; SV-SSMH-71-1
N361	519.420000	10.630000	0.000000	0.000000	0.000000
; SV-SSMH-11-69-18
N362	524.960000	8.210000	0.000000	0.000000	0.000000
; SV-SSMH-11-69-19
N363	530.690000	7.580000	0.000000	0.000000	0.000000
; SV-SSMH-11-69-20
N364	538.240000	5.810000	0.000000	0.000000	0.000000
; SV-SSMH-11-69-21
N365	541.010000	6.580000	0.000000	0.000000	0.000000
; SV-SSMH-11-69-21A
N366	545.680373	5.439627	0.000000	0.000000	0.000000
; SV-SSMH-11-69-22
N367	547.389065	2.360935	0.000000	0.000000	0.000000
; SV-SSMH-11-69-25
N368	562.540000	10.370000	0.000000	0.000000	0.000000
; SV-SSMH-12-61
N369	465.630000	9.220000	0.000000	0.000000	0.000000
; PR-SSMH-15-909
N37	461.079600	10.000000	0.000000	0.000000	0.000000
; PR-SSMH-15-913
N370	498.780000	12.700000	0.000000	0.000000	0.000000
; PR-SSMH-15-914
N371	526.680000	6.750000	0.000000	0.000000	0.000000
; PR-SSMH-15-915
N372	544.360000	9.350000	0.000000	0.000000	0.000000
; SD-SSMH-18-1033
N373	519.200000	9.560000	0.000000	0.000000	0.000000
; EW-SSMH-284-87
N374	548.730000	15.280000	0.000000	0.000000	0.000000
; PR-SSMH-NC-12D
N375	450.500000	7.010000	0.000000	0.000000	0.000000
; PR-SSMH-NC-12C
N376	447.200000	5.900000	0.000000	0.000000	0.000000
; PR-SSMH-NC-12B
N377	446.370000	7.340000	0.000000	0.000000	0.000000
; PR-SSMH-NC-12A
N378	438.250000	8.040000	0.000000	0.000000	0.000000
; PR-SSMH-NC-12
N379	436.530000	6.160000	0.000000	0.000000	0.000000
; PR-SSMH-15-910
N38	476.717867	11.083333	0.000000	0.000000	0.000000
; PR-SSMH-322-15
N380	576.450000	7.760000	0.000000	0.000000	0.000000
; SD-SSMH-14-624
N381	497.830000	10.020000	0.000000	0.000000	0.000000
; SD-SSMH-P1
N382	488.000000	8.760000	0.000000	0.000000	0.000000
; PR-SSMH-38-7
N383	505.740000	13.010000	0.000000	0.000000	0.000000
; PR-SSMH-62-2-A-1
N384	519.910000	4.620000	0.000000	0.000000	0.000000
; SD-SSMH-14-1008
N385	426.160000	27.830000	0.000000	0.000000	0.000000
; SD-SSMH-18-72-1008A
N386	425.430000	16.570000	0.000000	0.000000	0.000000
; SD-SSMH-18-72-1051
N387	425.860000	24.140000	0.000000	0.000000	0.000000
; LF-SSMH-18-72-552
N388	536.700000	18.760000	0.000000	0.000000	0.000000
; LF-SSMH-18-72-551
N389	522.690000	16.980000	0.000000	0.000000	0.000000
; CH-SSMH-16-864
N39	451.920000	10.117700	0.000000	0.000000	0.000000
; LF-SSMH-18-72-550
N390	512.110000	5.660000	0.000000	0.000000	0.000000
; PR-SSMH-15-771
N391	604.720000	8.580000	0.000000	0.000000	0.000000
; PR-SSMH-40-4001
N392	601.920000	7.580000	0.000000	0.000000	0.000000
; EW-SSMH-207-40
N393	636.470000	5.160000	0.000000	0.000000	0.000000
; EW-SSMH-207-41
N394	638.660000	5.600000	0.000000	0.000000	0.000000
; EW-SSMH-207-19
N395	577.950000	6.290000	0.000000	0.000000	0.000000
; PR-SSMH-15-802
N396	604.120000	8.190000	0.000000	0.000000	0.000000
; PR-SSMH-15-790
N397	600.930000	9.710000	0.000000	0.000000	0.000000
; PR-SSMH-15-789
N398	598.910000	10.910000	0.000000	0.000000	0.000000
; SV-SSMH-11-69-17
N399	516.240000	9.510000	0.000000	0.000000	0.000000
; SV-SSMH-11-23
N4	548.653233	6.416667	0.000000	0.000000	0.000000
; CH-SSMH-16-894
N40	457.669500	15.250000	0.000000	0.000000	0.000000
; SV-SSMH-11-26.C.O.
N400	569.410000	9.110000	0.000000	0.000000	0.000000
; SV-SSMH-11-24
N401	557.990000	6.660000	0.000000	0.000000	0.000000
; SV-SSMH-12-207
N402	395.580000	14.090000	0.000000	0.000000	0.000000
; SD-SSMH-18-72-1019
N403	462.750000	11.210000	0.000000	0.000000	0.000000
; SD-SSMH-18-72-1020
N404	464.350000	12.560000	0.000000	0.000000	0.000000
; SD-SSMH-18-72-1018
N405	460.130000	12.020000	0.000000	0.000000	0.000000
; PR-SSMH-116-2
N406	565.040000	9.140000	0.000000	0.000000	0.000000
; RC-SSMH-356-1
N407	438.110000	13.430000	0.000000	0.000000	0.000000
; CH-SSMH-267-12
N408	486.280000	5.730000	0.000000	0.000000	0.000000
; CH-SSMH-18-72-961
N409	480.270000	9.480000	0.000000	0.000000	0.000000
; SV-SSMH-17-2
N41	497.486233	6.916667	0.000000	0.000000	0.000000
; CH-SSMH-18-72-946
N410	472.190000	9.120000	0.000000	0.000000	0.000000
; CH-SSMH-18-72-945
N411	469.280000	8.890000	0.000000	0.000000	0.000000
; CH-SSMH-18-72-944
N412	465.170000	10.420000	0.000000	0.000000	0.000000
; CH-SSMH-18-72-943
N413	458.770000	15.550000	0.000000	0.000000	0.000000
; GPV-SSMH-259-1
N414	392.060000	21.990000	0.000000	0.000000	0.000000
; GPV-SSMH-529-1A
N415	392.300000	21.800000	0.000000	0.000000	0.000000
; LF-SSMH-16-904
N416	436.180000	13.820000	0.000000	0.000000	0.000000
; CH-SSJC-16-864-A
N417	442.680000	18.320000	0.000000	0.000000	0.000000
; WE-SSMH-310-A
N418	533.140000	6.860000	0.000000	0.000000	0.000000
; WS-SSMH-325-29A
N419	571.150000	6.350000	0.000000	0.000000	0.000000
; SV-SSMH-17-3
N42	502.355067	8.333333	0.000000	0.000000	0.000000
; SD-SSMH-18-72-28
N420	489.430000	5.570000	0.000000	0.000000	0.000000
N421	403.500000	0.500000	0.000000	500.000000	0.000000
N422	372.800000	0.833333	0.000000	500.000000	0.000000
N423	448.750000	0.500000	0.000000	500.000000	0.000000
N424	396.700000	1.666667	0.000000	500.000000	0.000000
N425	432.800000	0.500000	0.000000	500.000000	0.000000
N426	461.300000	1.500000	0.000000	500.000000	0.000000
N427	444.270000	1.333333	0.000000	500.000000	0.000000
N428	422.060000	0.166667	0.000000	1000.000000	0.000000