[OPTIONS]
;Option and Files Scenario Set: BASE
FLOW_UNITS		GPM
FLOW_ROUTING		KINWAVE
LINK_OFFSETS		DEPTH
MIN_SLOPE		0.000000
ALLOW_PONDING		YES
SKIP_STEADY_STATE 	NO
IGNORE_RAINFALL		NO
IGNORE_SNOWMELT		NO
IGNORE_GROUNDWATER	NO
IGNORE_QUALITY		NO

START_DATE		1/1/2002
START_TIME		00:00:00
REPORT_START_DATE	1/1/2002
REPORT_START_TIME	00:00:00
END_DATE		1/1/2002
END_TIME		24:00:00
SWEEP_START		01/01
SWEEP_END		12/31
DRY_DAYS		0
REPORT_STEP		
WET_STEP		00:15:00
DRY_STEP		24:00:00
ROUTING_STEP		300

INERTIAL_DAMPING	NONE
NORMAL_FLOW_LIMITED	SLOPE
FORCE_MAIN_EQUATION	H-W
VARIABLE_STEP		0.0
LENGTHENING_STEP	0.0
MIN_SURFAREA		0.75
MINIMUM_STEP		0.5


[FILES]

[RAINGAGES]

[HYDROGRAPHS]

[TEMPERATURE]

[ADJUSTMENTS]

[SUBCATCHMENTS]

[SUBAREAS]

[INFILTRATION]

[AQUIFERS]

[GROUNDWATER]

[GWF]

[SNOWPACKS]

[JUNCTIONS]
; MC1
10	6057.250000	20.750000	0.000000	1000.000000	0.000000
; CT18-A01
1051	5989.907000	17.830000	0.000000	0.000000	0.000000
; CT18-A02
1052	5991.282000	19.750000	0.000000	0.000000	0.000000
; CT18-A03
1053	5991.904000	16.710000	0.000000	0.000000	0.000000
; CT18-A04
1054	5993.916000	6.830000	0.000000	0.000000	0.000000
; CT18-A05
1055	5998.294395	10.709605	0.000000	0.000000	0.000000
; CT18-A06
1056	6003.826000	9.675000	0.000000	0.000000	0.000000
; CT18-B01
1057	6004.585000	7.040000	0.000000	0.000000	0.000000
; CT18-B02
1058	6008.113809	11.290191	0.000000	0.000000	0.000000
; CT18-B03
1059	6032.582070	7.039930	0.000000	0.000000	0.000000
; CT18-B04
1060	6057.724000	2.500000	0.000000	0.000000	0.000000
; CT18-C01
1073	6014.539102	9.039898	0.000000	0.000000	0.000000
; CT18-C02
1074	6023.538652	8.330348	0.000000	0.000000	0.000000
; CT18-L01
1107	6022.832070	7.289930	0.000000	0.000000	0.000000
; CT19-A01
1110	5948.327000	6.225000	0.000000	0.000000	0.000000
; CT19-A02
1111	5949.989000	11.770000	0.000000	0.000000	0.000000
; CT19-A03
1112	5953.725000	14.500000	0.000000	0.000000	0.000000
; CT19-B01
1129	5953.704000	13.430000	0.000000	0.000000	0.000000
; CT19-B02
1130	5965.106000	14.770000	0.000000	0.000000	0.000000
; CT19-B03
1131	5967.930098	10.669902	0.000000	0.000000	0.000000
; CT19-B04
1132	5981.403809	8.000191	0.000000	0.000000	0.000000
; CT19-B05
1133	5982.804082	8.879918	0.000000	0.000000	0.000000
; CT19-B06
1134	5993.668867	9.670133	0.000000	0.000000	0.000000
; CT19-B07
1135	5995.298000	4.500000	0.000000	0.000000	0.000000
; CT19-B08
1136	6002.625898	13.920102	0.000000	0.000000	0.000000
; CT19-B09
1137	6008.093262	10.249738	0.000000	0.000000	0.000000
; CT19-B10
1138	6016.055254	8.079746	0.000000	0.000000	0.000000
; CT19-B11
1139	6037.965332	2.499668	0.000000	0.000000	0.000000
; CT19-D01
1149	5974.121621	7.540379	0.000000	0.000000	0.000000
; CT19-D02
1150	5987.496133	8.789867	0.000000	0.000000	0.000000
; CT19-D03
1151	6003.461914	9.250086	0.000000	0.000000	0.000000
; CT19-E01
1152	5994.233887	7.500113	0.000000	0.000000	0.000000
; CT19-E02
1153	5997.795000	7.600000	0.000000	0.000000	0.000000
; CT19-E03
1154	6004.802000	7.600000	0.000000	0.000000	0.000000
; CT19-E04
1155	6007.737000	15.420000	0.000000	0.000000	0.000000
; CT19-E05
1156	6009.845000	14.200000	0.000000	0.000000	0.000000
; CT19-E06
1157	6011.248613	7.580387	0.000000	0.000000	0.000000
; CT19-F01
1158	6003.000449	7.959551	0.000000	0.000000	0.000000
; CT19-G01
1159	6009.254961	11.330039	0.000000	0.000000	0.000000
; CT20-A01
1180	5900.048906	4.330094	0.000000	0.000000	0.000000
; CT20-A02
1181	5900.596113	17.669887	0.000000	0.000000	0.000000
; CT20-A03
1182	5901.888184	12.499816	0.000000	0.000000	0.000000
; CT20-A04
1183	5903.800781	6.750219	0.000000	0.000000	0.000000
; CT20-A05
1184	5907.862383	10.329617	0.000000	0.000000	0.000000
; CT20-A06
1185	5917.559082	11.999918	0.000000	0.000000	0.000000
; CT20-A07
1186	5929.076172	7.499828	0.000000	0.000000	0.000000
; CT20-A08
1187	5934.935059	7.999941	0.000000	0.000000	0.000000
; CT20-A09
1188	5940.703047	8.419953	0.000000	0.000000	0.000000
; CT20-A10
1189	5947.206543	9.250457	0.000000	0.000000	0.000000
; CT20-A11
1190	5963.409746	10.330254	0.000000	0.000000	0.000000
; CT20-A12
1191	5983.045000	8.080000	0.000000	0.000000	0.000000
; CT20-A13
1192	5986.227461	11.669539	0.000000	0.000000	0.000000
; CT20-A14
1193	5989.691000	13.500000	0.000000	0.000000	0.000000
; CT20-B01
1194	6000.344000	8.250000	0.000000	0.000000	0.000000
; CT20-B02
1195	6001.944000	9.933000	0.000000	0.000000	0.000000
; CT20-B03
1196	6003.544000	11.250000	0.000000	0.000000	0.000000
; CT20-B04
1197	6005.149004	8.929996	0.000000	0.000000	0.000000
; CT21-A01
1199	5963.062422	24.419578	0.000000	0.000000	0.000000
; LAH2
12	5936.570000	0.000000	0.000000	1000.000000	0.000000
; CT21-A02
1200	5974.020918	14.420082	0.000000	0.000000	0.000000
; CT21-A03
1201	5975.683000	14.080000	0.000000	0.000000	0.000000
; CT21-A04
1202	5981.084473	11.749527	0.000000	0.000000	0.000000
; CT21-A05
1203	5984.077227	14.579773	0.000000	0.000000	0.000000
; CT21-A06
1204	6001.028809	9.250191	0.000000	0.000000	0.000000
; CT21-A07
1205	6011.528242	9.919758	0.000000	0.000000	0.000000
; CT21-A08
1206	6040.896563	9.330437	0.000000	0.000000	0.000000
; CT21-A09
1207	6054.457930	8.170070	0.000000	0.000000	0.000000
; CT21-A10
1208	6059.006426	10.079574	0.000000	0.000000	0.000000
; CT21-A11
1209	6079.585371	10.919629	0.000000	0.000000	0.000000
; CT21-A12
1210	6096.483320	9.919680	0.000000	0.000000	0.000000
; CT21-A13
1211	6107.342773	7.500227	0.000000	0.000000	0.000000
; CT21-B01
1212	6007.128496	10.329504	0.000000	0.000000	0.000000
; CT21-BP01
1213	5958.680000	0.000000	0.000000	1000.000000	0.000000
; CT21-C01
1214	6019.520098	6.329902	0.000000	0.000000	0.000000
; CT21-D01
1215	6049.440918	6.750082	0.000000	0.000000	0.000000
; CT21-D02
1216	6052.499434	7.669566	0.000000	0.000000	0.000000
; CT21-E01
1217	5976.635000	9.830000	0.000000	0.000000	0.000000
; CT21-E02
1218	5977.263000	12.080000	0.000000	0.000000	0.000000
; CT21-E03
1219	5978.849609	7.750391	0.000000	0.000000	0.000000
; CT21-E04
1220	5980.315918	9.250082	0.000000	0.000000	0.000000
; CT21-E05
1221	5990.604570	10.080430	0.000000	0.000000	0.000000
; CT21-E06
1222	6000.576094	9.919906	0.000000	0.000000	0.000000
; CT21-E07
1223	6003.762695	13.250305	0.000000	0.000000	0.000000
; CT21-E08
1224	6005.954180	6.763820	0.000000	0.000000	0.000000
; CT21-E09
1225	6014.006348	11.749652	0.000000	0.000000	0.000000
; CT21-E10
1226	6014.161699	10.830301	0.000000	0.000000	0.000000
; CT21-E11
1227	6014.721602	9.920398	0.000000	0.000000	0.000000
; CT21-E12
1228	6016.142168	9.079832	0.000000	0.000000	0.000000
; CT21-E13
1229	6017.010332	6.329668	0.000000	0.000000	0.000000
; CT21-E14
1230	6018.222734	4.330266	0.000000	0.000000	0.000000
; CT21-E15
1231	6019.012129	4.919871	0.000000	0.000000	0.000000
; CT21-E16
1232	6020.708984	5.000016	0.000000	0.000000	0.000000
; CT21-E17
1233	6023.697188	11.419812	0.000000	0.000000	0.000000
; CT21-E18
1234	6024.089277	7.669723	0.000000	0.000000	0.000000
; CT21-E19
1235	6025.545000	8.330000	0.000000	0.000000	0.000000
; CT21-E20
1236	6027.986816	14.000184	0.000000	0.000000	0.000000
; CT21-E21
1237	6029.883789	14.500211	0.000000	0.000000	0.000000
; CT21-E22
1238	6046.840820	7.500180	0.000000	0.000000	0.000000
; CT21-F01
1239	5985.978438	4.919562	0.000000	0.000000	0.000000
; CT21-F02
1240	5989.034180	4.999820	0.000000	0.000000	0.000000
; CT21-F03
1241	5989.686602	7.580398	0.000000	0.000000	0.000000
; CT21-F04
1242	6006.646074	9.079926	0.000000	0.000000	0.000000
; CT21-G01
1243	6006.529785	7.750215	0.000000	0.000000	0.000000
; CT21-G02
1244	6007.465254	7.419746	0.000000	0.000000	0.000000
; CT21-H01
1245	5991.762129	8.169871	0.000000	0.000000	0.000000
; CT21-H02
1246	5998.846270	6.579730	0.000000	0.000000	0.000000
; CT21-H03
1247	6005.328535	6.920465	0.000000	0.000000	0.000000
; CT21-H04
1248	6018.787031	5.669969	0.000000	0.000000	0.000000
; CT21-H05
1249	6044.335859	8.920141	0.000000	0.000000	0.000000
; CT21-H06
1250	6054.493242	5.329758	0.000000	0.000000	0.000000
; CT21-H07
1251	6063.925859	6.830141	0.000000	0.000000	0.000000
; CT21-H08
1252	6076.316895	5.000105	0.000000	0.000000	0.000000
; CT21-I01
1253	6015.464434	5.829566	0.000000	0.000000	0.000000
; CT21-I02
1254	6038.648848	5.670152	0.000000	0.000000	0.000000
; CT21-I03
1255	6046.941406	7.999594	0.000000	0.000000	0.000000
; CT21-J01
1256	6080.191973	7.830027	0.000000	0.000000	0.000000
; CT21-K01
1257	6012.384199	7.669801	0.000000	0.000000	0.000000
; CT21-K02
1258	6022.961992	7.580008	0.000000	0.000000	0.000000
; CT21-K03
1259	6052.105391	11.669609	0.000000	0.000000	0.000000
; CT21-L01
1260	6024.163496	10.919504	0.000000	0.000000	0.000000
; CT21-L02
1261	6031.549883	10.830117	0.000000	0.000000	0.000000
; CT21-L03
1262	6061.021484	8.749516	0.000000	0.000000	0.000000
; CT21-L04
1263	6087.604980	9.000020	0.000000	0.000000	0.000000
; CT21-L05
1264	6098.629395	8.249605	0.000000	0.000000	0.000000
; CT21-M01
1265	6027.878906	7.750094	0.000000	0.000000	0.000000
; CT21-N01
1266	6027.311934	7.420066	0.000000	0.000000	0.000000
; CT22-A01
1268	5942.374023	13.499977	0.000000	0.000000	0.000000
; CT22-A02
1269	5943.532793	13.830207	0.000000	0.000000	0.000000
; CT22-A03
1270	5952.267090	8.749910	0.000000	0.000000	0.000000
; CT22-A04
1271	5953.682539	11.920461	0.000000	0.000000	0.000000
; CT22-A05
1272	5953.928711	10.500289	0.000000	0.000000	0.000000
; CT22-A06
1273	5962.305664	13.500336	0.000000	0.000000	0.000000
; CT22-A07
1274	5987.256914	6.580086	0.000000	0.000000	0.000000
; CT22-A08
1275	6001.614336	7.579664	0.000000	0.000000	0.000000
; CT22-A09
1276	6014.231035	7.579965	0.000000	0.000000	0.000000
; CT22-B01
1277	5968.607910	5.250090	0.000000	0.000000	0.000000
; CT22-BP01
1278	5936.570000	0.000000	0.000000	1000.000000	0.000000
; CT22-BP02
1279	5936.570000	0.000000	0.000000	1000.000000	0.000000
; CT22-BP03
1280	5936.570000	0.000000	0.000000	1000.000000	0.000000
; CT22-C01
1281	5954.959883	4.170117	0.000000	0.000000	0.000000
; CT22-C02
1282	5957.488281	12.749719	0.000000	0.000000	0.000000
; CT22-C03
1283	5958.327070	19.919930	0.000000	0.000000	0.000000
; CT22-C04
1284	5974.912520	7.420480	0.000000	0.000000	0.000000
; CT22-D01
1285	5959.992598	17.420402	0.000000	0.000000	0.000000
; CT22-D02
1286	5960.565508	16.080492	0.000000	0.000000	0.000000
; CT22-D03
1287	5963.118164	15.249836	0.000000	0.000000	0.000000
; CT22-D04
1288	5963.428633	13.670367	0.000000	0.000000	0.000000
; CT22-D05
1289	5964.694414	6.579586	0.000000	0.000000	0.000000
; CT22-D06
1290	5965.830645	6.830355	0.000000	0.000000	0.000000
; CT22-D07
1291	5969.072266	7.249734	0.000000	0.000000	0.000000
; CT22-D08
1292	5972.157715	12.250285	0.000000	0.000000	0.000000
; CT22-D09
1293	5990.134199	8.669801	0.000000	0.000000	0.000000
; CT22-D10
1294	6002.903242	6.169758	0.000000	0.000000	0.000000
; CT22-D11
1295	6005.225098	6.499902	0.000000	0.000000	0.000000
; CT22-D12
1296	6014.112715	9.670285	0.000000	0.000000	0.000000
; CT22-D13
1297	6040.708008	9.999992	0.000000	0.000000	0.000000
; CT22-D14
1298	6042.711836	9.170164	0.000000	0.000000	0.000000
; CT22-D15
1299	6044.971758	11.080242	0.000000	0.000000	0.000000
; CT22-D16
1300	6050.394043	6.249957	0.000000	0.000000	0.000000
; CT22-E01
1301	5972.027422	7.329578	0.000000	0.000000	0.000000
; CT22-E02
1302	5976.345625	6.920375	0.000000	0.000000	0.000000
; CT22-F01
1303	5980.460938	14.250062	0.000000	0.000000	0.000000
; CT22-F02
1304	5981.545898	13.250102	0.000000	0.000000	0.000000
; CT22-F03
1305	5982.420332	9.419668	0.000000	0.000000	0.000000
; CT22-F04
1306	5983.324707	5.500293	0.000000	0.000000	0.000000
; CT22-F05
1307	5988.395586	6.080414	0.000000	0.000000	0.000000
; CT22-G01
1308	5993.120684	7.830316	0.000000	0.000000	0.000000
; CT22-H01
1309	5988.211504	11.080496	0.000000	0.000000	0.000000
; CT22-I01
1310	5974.037520	5.420480	0.000000	0.000000	0.000000
; CT22-I02
1311	5974.643477	4.419523	0.000000	0.000000	0.000000
; CT22-I03
1312	5975.404863	6.330137	0.000000	0.000000	0.000000
; CT22-I04
1313	5976.352000	4.420000	0.000000	0.000000	0.000000
; CT22-I05
1314	5977.386719	3.750281	0.000000	0.000000	0.000000
; CT22-I06
1315	5978.859941	6.330059	0.000000	0.000000	0.000000
; CT22-I07
1316	5980.476641	9.830359	0.000000	0.000000	0.000000
; CT22-I08
1317	5981.292559	9.330441	0.000000	0.000000	0.000000
; CT22-I09
1318	5982.265547	8.420453	0.000000	0.000000	0.000000
; CT22-I10
1319	5983.619219	11.829781	0.000000	0.000000	0.000000
; CT22-I11
1320	5984.397949	7.000051	0.000000	0.000000	0.000000
; CT22-J01
1321	5988.104004	5.499996	0.000000	0.000000	0.000000
; CT22-K01
1322	5994.456465	16.169535	0.000000	0.000000	0.000000
; CT22-K02
1323	5996.501875	7.670125	0.000000	0.000000	0.000000
; CT22-K03
1324	5998.996582	6.500418	0.000000	0.000000	0.000000
; CT22-L01
1325	6018.965254	8.669746	0.000000	0.000000	0.000000
; CT22-L02
1326	6024.253496	4.579504	0.000000	0.000000	0.000000
; CT22-L03
1327	6027.221758	4.580242	0.000000	0.000000	0.000000
; CT22-L04
1328	6030.332109	6.579891	0.000000	0.000000	0.000000
; CT22-L05
1329	6033.430000	5.170000	0.000000	0.000000	0.000000
; CT22-L06
1330	6033.620000	4.580000	0.000000	0.000000	0.000000
; CT22-L07
1331	6034.236328	6.249672	0.000000	0.000000	0.000000
; CT22-L08
1332	6034.980000	6.920000	0.000000	0.000000	0.000000
; CT22-L09
1333	6035.230000	6.670000	0.000000	0.000000	0.000000
; CT22-L10
1334	6035.550000	4.750000	0.000000	0.000000	0.000000
; CT22-M01
1335	6063.813477	5.749523	0.000000	0.000000	0.000000
; CT22-N01
1336	5967.540449	14.169551	0.000000	0.000000	0.000000
; CT22-N02
1337	5969.664551	13.500449	0.000000	0.000000	0.000000
; CT22-N03
1338	5988.019531	6.750469	0.000000	0.000000	0.000000
; CT22-N04
1339	5996.696211	6.669789	0.000000	0.000000	0.000000
; CT22-N05
1340	5998.609375	7.249625	0.000000	0.000000	0.000000
; CT22-N06
1341	6004.409180	8.999820	0.000000	0.000000	0.000000
; CT22-N07
1342	6015.205488	7.919512	0.000000	0.000000	0.000000
; CT22-O01
1343	6033.482422	10.499578	0.000000	0.000000	0.000000
; CT22-O02
1344	6035.756270	6.169730	0.000000	0.000000	0.000000
; CT22-P01
1345	6026.677324	9.079676	0.000000	0.000000	0.000000
; CT22-P02
1346	6031.840820	6.500180	0.000000	0.000000	0.000000
; CT22-Q01
1347	5975.544512	5.830488	0.000000	0.000000	0.000000
; CT22-Q02
1348	5977.660645	6.750355	0.000000	0.000000	0.000000
; CT22-Q03
1349	5979.940352	7.419648	0.000000	0.000000	0.000000
; CT22-Q04
1350	5980.522461	5.249539	0.000000	0.000000	0.000000
; CT22-R01
1351	5959.815918	8.000082	0.000000	0.000000	0.000000
; CT22-R02
1352	5967.083574	7.080426	0.000000	0.000000	0.000000
; CT22-R03
1353	5962.034668	10.250332	0.000000	0.000000	0.000000
; CT22-S01
1354	5945.460449	4.499551	0.000000	0.000000	0.000000
; CT22-S02
1355	5947.730059	5.579941	0.000000	0.000000	0.000000
; CT22-S03
1356	5956.217773	5.500227	0.000000	0.000000	0.000000
; CT22-S04
1357	5963.318770	6.170230	0.000000	0.000000	0.000000
; CT22-S05
1358	5980.232832	5.920168	0.000000	0.000000	0.000000
; CT23-A01
1359	5964.742000	22.770000	0.000000	0.000000	0.000000
; CT23-A02
1360	5965.550000	24.000000	0.000000	0.000000	0.000000
; CT23-A03
1361	5965.852000	18.330000	0.000000	0.000000	0.000000
; CT23-A04
1362	5966.304000	9.000000	0.000000	0.000000	0.000000
; CT23-A05
1363	5967.178000	15.420000	0.000000	0.000000	0.000000
; CT23-A06
1364	5968.083984	9.000016	0.000000	0.000000	0.000000
; CT23-A07
1365	5969.141602	6.000398	0.000000	0.000000	0.000000
; CT23-A08
1366	5971.138184	10.999816	0.000000	0.000000	0.000000
; CT23-A09
1367	5971.530195	9.169805	0.000000	0.000000	0.000000
; CT23-A10
1368	5972.919434	7.433566	0.000000	0.000000	0.000000
; CT23-A11
1369	5983.593262	3.999738	0.000000	0.000000	0.000000
; CT23-A12
1370	5990.470293	4.329707	0.000000	0.000000	0.000000
; CT23-A13
1371	5992.675000	4.250000	0.000000	0.000000	0.000000
; CT23-A14
1372	5992.896000	6.170000	0.000000	0.000000	0.000000
; CT23-A15
1373	5993.660078	5.669922	0.000000	0.000000	0.000000
; CT23-A16
1374	5995.126055	13.079945	0.000000	0.000000	0.000000
; CT23-A17
1375	5995.596113	6.919887	0.000000	0.000000	0.000000
; CT23-A18
1376	5997.425703	4.670297	0.000000	0.000000	0.000000
; CT23-B01
1377	5975.029297	13.999703	0.000000	0.000000	0.000000
; CT23-B02
1378	5977.685625	8.580375	0.000000	0.000000	0.000000
; CT23-B03
1379	5978.205000	5.670000	0.000000	0.000000	0.000000
; CT23-C01
1380	5984.285156	6.749844	0.000000	0.000000	0.000000
; CT23-C02
1381	5994.169434	6.499566	0.000000	0.000000	0.000000
; CT23-C03
1382	6002.354082	6.329918	0.000000	0.000000	0.000000
; CT23-C04
1383	6006.347090	6.669910	0.000000	0.000000	0.000000
; CT23-C05
1384	6012.303301	7.829699	0.000000	0.000000	0.000000
; CT23-D01
1385	5985.279375	10.579625	0.000000	0.000000	0.000000
; CT23-D02
1386	5986.434648	10.080352	0.000000	0.000000	0.000000
; CT23-D03
1387	6009.142168	6.829832	0.000000	0.000000	0.000000
; CT23-D04
1388	6016.107012	6.329988	0.000000	0.000000	0.000000
; CT23-E01
1389	5979.490645	6.920355	0.000000	0.000000	0.000000
; CT23-F01
1390	5997.640547	7.670453	0.000000	0.000000	0.000000
; CT23-G01
1391	5987.439941	12.750059	0.000000	0.000000	0.000000
; CT23-H01
1392	5995.837402	8.249598	0.000000	0.000000	0.000000
; CT23-H02
1393	6011.302734	5.500266	0.000000	0.000000	0.000000
; CT23-H03
1394	6020.577227	12.579773	0.000000	0.000000	0.000000
; CT23-I01
1395	6008.384688	6.670312	0.000000	0.000000	0.000000
; CT23-J01
1396	5998.400313	3.669687	0.000000	0.000000	0.000000
; CT23-K01
1397	5997.155195	4.669805	0.000000	0.000000	0.000000
; CT23-K02
1398	6001.942383	6.749617	0.000000	0.000000	0.000000
; CT23-K03
1399	6013.427324	9.329676	0.000000	0.000000	0.000000
; LAH5
14	5913.190000	0.000000	0.000000	1000.000000	0.000000
; CT23-K04
1400	6014.249512	10.000488	0.000000	0.000000	0.000000
; CT23-K05
1401	6027.035234	8.579766	0.000000	0.000000	0.000000
; CT23-K06
1402	6032.092363	6.829637	0.000000	0.000000	0.000000
; CT23-L01
1403	6029.049238	6.169762	0.000000	0.000000	0.000000
; CT23-M01
1404	6053.553301	8.079699	0.000000	0.000000	0.000000
; CT24-A01
1406	5870.173418	7.829582	0.000000	0.000000	0.000000
; CT24-A02
1407	5875.561602	3.080398	0.000000	0.000000	0.000000
; CT24-A03
1408	5877.072000	6.590000	0.000000	0.000000	0.000000
; CT24-A04
1409	5877.786000	5.830000	0.000000	0.000000	0.000000
; CT24-A05
1410	5881.668535	8.580465	0.000000	0.000000	0.000000
; CT24-A06
1411	5882.299238	9.669762	0.000000	0.000000	0.000000
; CT24-A07
1412	5899.060059	4.749941	0.000000	0.000000	0.000000
; CT24-A08
1413	5909.889570	6.170430	0.000000	0.000000	0.000000
; CT24-A09
1414	5916.749590	5.580410	0.000000	0.000000	0.000000
; CT24-A10
1415	5922.543867	4.420133	0.000000	0.000000	0.000000
; CT24-A11
1416	5929.409590	4.170410	0.000000	0.000000	0.000000
; CT24-A12
1417	5936.593750	4.000250	0.000000	0.000000	0.000000
; CT24-A13
1418	5943.350508	7.170492	0.000000	0.000000	0.000000
; CT24-A14
1419	5950.146895	7.420105	0.000000	0.000000	0.000000
; CT24-A15
1420	5952.336426	7.499574	0.000000	0.000000	0.000000
; CT24-A16
1421	5953.898926	8.500074	0.000000	0.000000	0.000000
; CT24-A17
1422	5957.125078	8.079922	0.000000	0.000000	0.000000
; CT24-A18
1423	5962.073164	7.919836	0.000000	0.000000	0.000000
; CT24-A19
1424	5963.279785	6.000215	0.000000	0.000000	0.000000
; CT24-A20
1425	5968.302734	4.500266	0.000000	0.000000	0.000000
; CT24-B01
1426	5880.357500	12.080500	0.000000	0.000000	0.000000
; CT24-B02
1427	5902.950273	7.329727	0.000000	0.000000	0.000000
; CT24-B03
1428	5932.753008	8.329992	0.000000	0.000000	0.000000
; CT24-B04
1429	5950.419434	7.499566	0.000000	0.000000	0.000000
; CT24-B05
1430	5974.875566	9.330434	0.000000	0.000000	0.000000
; CT24-B06
1431	5990.696367	8.329633	0.000000	0.000000	0.000000
; CT24-B07
1432	5994.467773	8.500227	0.000000	0.000000	0.000000
; CT24-B08
1433	6008.750977	6.683023	0.000000	0.000000	0.000000
; CT24-BP01
1434	5862.410000	0.000000	0.000000	1000.000000	0.000000
; CT24-C01
1435	5882.293047	4.329953	0.000000	0.000000	0.000000
; CT24-C02
1436	5891.920488	7.579512	0.000000	0.000000	0.000000
; CT24-C03
1437	5909.447676	11.670324	0.000000	0.000000	0.000000
; CT24-C04
1438	5934.974199	11.829801	0.000000	0.000000	0.000000
; CT24-C05
1439	5937.312578	6.080422	0.000000	0.000000	0.000000
; CT24-C06
1440	5960.440918	8.500082	0.000000	0.000000	0.000000
; CT24-C07
1441	5991.189453	8.499547	0.000000	0.000000	0.000000
; CT24-D01
1442	5952.509844	7.830156	0.000000	0.000000	0.000000
; CT24-E01
1443	5908.186113	7.829887	0.000000	0.000000	0.000000
; CT24-F01
1444	5902.256758	11.670242	0.000000	0.000000	0.000000
; CT24-F02
1445	5902.599688	10.330312	0.000000	0.000000	0.000000
; CT24-F03
1446	5904.887285	8.329715	0.000000	0.000000	0.000000
; CT24-F04
1447	5921.324141	6.669859	0.000000	0.000000	0.000000
; CT24-F05
1448	5922.084063	10.579937	0.000000	0.000000	0.000000
; CT24-F06
1449	5936.357344	11.669656	0.000000	0.000000	0.000000
; CT24-F07
1450	5953.427656	3.420344	0.000000	0.000000	0.000000
; CT24-G01
1451	5914.732910	4.000090	0.000000	0.000000	0.000000
; CT24-G02
1452	5928.596602	11.420398	0.000000	0.000000	0.000000
; CT24-G03
1453	5936.358887	13.250113	0.000000	0.000000	0.000000
; CT24-G04
1454	5945.358398	10.999602	0.000000	0.000000	0.000000
; CT24-H01
1455	5919.778809	10.250191	0.000000	0.000000	0.000000
; CT24-H02
1456	5922.472168	6.499832	0.000000	0.000000	0.000000
; CT24-H03
1457	5933.681719	6.580281	0.000000	0.000000	0.000000
; CT24-H04
1458	5934.963945	8.080055	0.000000	0.000000	0.000000
; CT24-I01
1459	5933.362715	6.420285	0.000000	0.000000	0.000000
; CT24-J01
1460	5938.011641	9.420359	0.000000	0.000000	0.000000
; CT24-K01
1461	5947.355469	5.499531	0.000000	0.000000	0.000000
; CT24-L01
1462	5960.841309	7.499691	0.000000	0.000000	0.000000
; CT24-L02
1463	5971.182617	7.250383	0.000000	0.000000	0.000000
; CT24-L03
1464	5979.078047	4.919953	0.000000	0.000000	0.000000
; CT24-M01
1465	5971.586348	4.919652	0.000000	0.000000	0.000000
; CT24-M02
1466	5974.244629	4.500371	0.000000	0.000000	0.000000
; CT24-N01
1467	5986.837324	4.669676	0.000000	0.000000	0.000000
; CT24-N02
1468	6012.398359	5.669641	0.000000	0.000000	0.000000
; CT24-N03
1469	6018.430176	6.999824	0.000000	0.000000	0.000000
; CT24-N04
1470	6037.605547	5.830453	0.000000	0.000000	0.000000
; CT24-O01
1471	6006.069336	12.499664	0.000000	0.000000	0.000000
; CT25-A01
1473	5886.456621	8.830379	0.000000	0.000000	0.000000
; CT25-A02
1474	5902.818438	5.829562	0.000000	0.000000	0.000000
; CT25-A03
1475	5904.535078	12.669922	0.000000	0.000000	0.000000
; CT25-A04
1476	5912.794355	6.919645	0.000000	0.000000	0.000000
; CT25-A05
1477	5915.229004	9.249996	0.000000	0.000000	0.000000
; CT25-A06
1478	5934.323320	7.329680	0.000000	0.000000	0.000000
; CT25-A07
1479	5936.588301	10.669699	0.000000	0.000000	0.000000
; CT25-A08
1480	5959.052168	6.919832	0.000000	0.000000	0.000000
; CT25-B01
1481	5897.416016	4.999984	0.000000	0.000000	0.000000
; CT25-B02
1482	5899.976973	11.170027	0.000000	0.000000	0.000000
; CT25-B03
1483	5902.155195	10.169805	0.000000	0.000000	0.000000
; CT25-B04
1484	5923.934570	8.000430	0.000000	0.000000	0.000000
; CT25-BP01
1485	5875.750000	0.000000	0.000000	1000.000000	0.000000
; CT25-BP02
1486	5875.750000	0.000000	0.000000	1000.000000	0.000000
; CT25-BP03
1487	5875.750000	0.000000	0.000000	1000.000000	0.000000
; CT25-C01
1488	5890.124512	12.000488	0.000000	0.000000	0.000000
; CT25-C02
1489	5891.201172	10.249828	0.000000	0.000000	0.000000
; CT25-C03
1490	5903.660078	7.419922	0.000000	0.000000	0.000000
; CT25-D01
1491	5923.281250	7.499750	0.000000	0.000000	0.000000
; CT25-D02
1492	5950.087324	7.669676	0.000000	0.000000	0.000000
; CT25-E01
1493	5907.317871	7.250129	0.000000	0.000000	0.000000
; CT25-E02
1494	5916.680176	7.683824	0.000000	0.000000	0.000000
; CT25-E03
1495	5923.260332	7.329668	0.000000	0.000000	0.000000
; CT25-E04
1496	5924.388594	6.920406	0.000000	0.000000	0.000000
; CT25-E05
1497	5933.692461	6.329539	0.000000	0.000000	0.000000
; CT25-E06
1498	5940.602539	6.000461	0.000000	0.000000	0.000000
; CT25-F01
1499	5942.441816	6.670184	0.000000	0.000000	0.000000
; CT25-G01
1500	5955.229980	5.750020	0.000000	0.000000	0.000000
; CT25-H01
1501	5957.413008	10.169992	0.000000	0.000000	0.000000
; CT25-I01
1502	5956.749102	10.329898	0.000000	0.000000	0.000000
; CT25-I02
1503	5966.977617	7.580383	0.000000	0.000000	0.000000
; CT25-J01
1504	5907.709961	12.000039	0.000000	0.000000	0.000000
; CT25-J02
1505	5913.439863	8.670137	0.000000	0.000000	0.000000
; CT25-J03
1506	5914.628984	6.080016	0.000000	0.000000	0.000000
; CT25-J04
1507	5917.192793	4.920207	0.000000	0.000000	0.000000
; CT25-J05
1508	5932.611250	3.419750	0.000000	0.000000	0.000000
; CT25-J06
1509	5938.554277	3.579723	0.000000	0.000000	0.000000
; CT25-J07
1510	5948.138000	6.830000	0.000000	0.000000	0.000000
; CT25-J08
1511	5949.020996	6.500004	0.000000	0.000000	0.000000
; CT25-J09
1512	5961.364336	11.579664	0.000000	0.000000	0.000000
; CT25-J10
1513	5963.821289	6.249711	0.000000	0.000000	0.000000
; CT25-J11
1514	5994.482344	15.169656	0.000000	0.000000	0.000000
; CT25-J12
1515	6019.187500	4.250500	0.000000	0.000000	0.000000
; CT25-K01
1516	5941.601973	4.670027	0.000000	0.000000	0.000000
; CT25-L01
1517	5951.709063	7.079937	0.000000	0.000000	0.000000
; CT25-M01
1518	5956.043867	5.920133	0.000000	0.000000	0.000000
; CT25-M02
1519	5973.235430	8.579570	0.000000	0.000000	0.000000
; CT25-M03
1520	5998.873535	7.000465	0.000000	0.000000	0.000000
; CT25-M04
1521	6006.628984	6.580016	0.000000	0.000000	0.000000
; CT25-M05
1522	6018.445879	4.080121	0.000000	0.000000	0.000000
; CT25-N01
1523	6029.724531	5.670469	0.000000	0.000000	0.000000
; CT25-O01
1524	6008.283770	4.830230	0.000000	0.000000	0.000000
; CT25-P01
1525	5963.935957	8.170043	0.000000	0.000000	0.000000
; CT25-Q01
1526	5997.493652	9.000348	0.000000	0.000000	0.000000
; CT25-R01
1527	5941.038984	6.170016	0.000000	0.000000	0.000000
; CT26-A01
1529	5919.627930	8.500070	0.000000	0.000000	0.000000
; CT26-A02
1530	5921.175859	11.830141	0.000000	0.000000	0.000000
; CT26-A03
1531	5921.969727	10.000273	0.000000	0.000000	0.000000
; CT26-A04
1532	5925.299727	16.920273	0.000000	0.000000	0.000000
; CT26-A05
1533	5954.257891	8.830109	0.000000	0.000000	0.000000
; CT26-A06
1534	5960.435957	7.420043	0.000000	0.000000	0.000000
; CT26-A07
1535	5964.295410	7.249590	0.000000	0.000000	0.000000
; CT26-A08
1536	5966.201660	6.500340	0.000000	0.000000	0.000000
; CT26-A09
1537	5967.924883	6.830117	0.000000	0.000000	0.000000
; CT26-B01
1538	5925.750000	7.000000	0.000000	0.000000	0.000000
; CT26-B02
1539	5940.705488	4.669512	0.000000	0.000000	0.000000
; CT26-B03
1540	5953.213945	4.580055	0.000000	0.000000	0.000000
; CT26-BP01
1541	5913.190000	0.000000	0.000000	1000.000000	0.000000
; CT26-C01
1542	5929.783770	7.580230	0.000000	0.000000	0.000000
; CT26-C02
1543	5935.288984	7.670016	0.000000	0.000000	0.000000
; CT26-C03
1544	5953.903887	7.580113	0.000000	0.000000	0.000000
; CT26-C04
1545	5973.678145	4.669855	0.000000	0.000000	0.000000
; CT26-D01
1546	5930.600176	10.579824	0.000000	0.000000	0.000000
; CT26-E01
1547	5934.545410	12.249590	0.000000	0.000000	0.000000
; CT26-E02
1548	5954.868574	12.420426	0.000000	0.000000	0.000000
; CT26-E03
1549	5964.181641	22.750359	0.000000	0.000000	0.000000
; CT26-E04
1550	5992.501875	18.420125	0.000000	0.000000	0.000000
; CT26-F01
1551	5964.340410	6.329590	0.000000	0.000000	0.000000
; CT26-G01
1552	5966.049805	12.750195	0.000000	0.000000	0.000000
; CT26-H01
1553	5921.842285	4.999715	0.000000	0.000000	0.000000
; CT26-H02
1554	5956.356855	7.670145	0.000000	0.000000	0.000000
; CT26-H03
1555	5968.232344	4.419656	0.000000	0.000000	0.000000
; CT26-H04
1556	5988.941484	4.579516	0.000000	0.000000	0.000000
; CT26-I01
1557	5922.169355	3.169645	0.000000	0.000000	0.000000
; CT27-A01
1559	5921.970137	16.669863	0.000000	0.000000	0.000000
; CT27-A02
1560	5928.131758	18.170242	0.000000	0.000000	0.000000
; CT27-A03
1561	5945.725586	9.750414	0.000000	0.000000	0.000000
; CT27-A04
1562	5957.292969	13.000031	0.000000	0.000000	0.000000
; CT27-A05
1563	5974.582031	9.499969	0.000000	0.000000	0.000000
; CT27-A06
1564	5985.364824	5.080176	0.000000	0.000000	0.000000
; CT27-B01
1565	5924.519043	18.499957	0.000000	0.000000	0.000000
; CT27-B02
1566	5928.173418	19.079582	0.000000	0.000000	0.000000
; CT27-B03
1567	5934.757402	21.079598	0.000000	0.000000	0.000000
; CT27-BP01
1568	5917.380000	0.000000	0.000000	1000.000000	0.000000
; CT27-BP02
1569	5917.380000	0.000000	0.000000	1000.000000	0.000000
; CT27-C01
1570	5947.345293	4.829707	0.000000	0.000000	0.000000
; CT27-C02
1571	5957.373457	4.919543	0.000000	0.000000	0.000000
; CT27-C03
1572	5970.336016	5.329984	0.000000	0.000000	0.000000
; CT27-C04
1573	5971.437422	4.169578	0.000000	0.000000	0.000000
; CT27-D01
1574	5929.004805	3.670195	0.000000	0.000000	0.000000
; CT27-E01
1575	5948.064531	8.830469	0.000000	0.000000	0.000000
; CT27-F01
1576	5980.213945	10.080055	0.000000	0.000000	0.000000
; CT27-F02
1577	5997.091875	7.830125	0.000000	0.000000	0.000000
; CT30-A01
1578	6023.633223	7.669777	0.000000	0.000000	0.000000
; CT30-A02
1579	6027.778242	9.169758	0.000000	0.000000	0.000000
; CT30-A03
1580	6050.530273	6.749727	0.000000	0.000000	0.000000
; CT30-A04
1581	6075.755000	3.080000	0.000000	0.000000	0.000000
; CT30-A05
1582	6101.174316	8.749684	0.000000	0.000000	0.000000
; CT30-A06
1583	6108.701172	10.249828	0.000000	0.000000	0.000000
; CT30-A06A
1584	6108.108887	9.750113	0.000000	0.000000	0.000000
; CT30-A07
1585	6113.353027	5.249973	0.000000	0.000000	0.000000
; CT30-A08
1586	6125.009000	11.750000	0.000000	0.000000	0.000000
; CT30-A09
1587	6129.330078	12.999922	0.000000	0.000000	0.000000
; CT30-A10
1588	6136.147949	12.250051	0.000000	0.000000	0.000000
; CT30-A11
1589	6140.651367	13.499633	0.000000	0.000000	0.000000
; CT30-A12
1590	6141.427656	17.920344	0.000000	0.000000	0.000000
; CT30-A13
1591	6143.558184	11.829816	0.000000	0.000000	0.000000
; CT30-A14
1592	6147.278398	11.579602	0.000000	0.000000	0.000000
; CT30-A15
1593	6167.113359	4.579641	0.000000	0.000000	0.000000
; CT30-A16
1594	6178.472578	13.170422	0.000000	0.000000	0.000000
; CT30-A17
1595	6194.723066	9.419934	0.000000	0.000000	0.000000
; CT30-A18
1596	6207.797852	9.750148	0.000000	0.000000	0.000000
; CT30-A19
1597	6224.315879	6.460121	0.000000	0.000000	0.000000
; CT30-A20