[OPTIONS]
;Option and Files Scenario Set: BASE
FLOW_UNITS		GPM
INFILTRATION		HORTON
FLOW_ROUTING		DYNWAVE
LINK_OFFSETS		DEPTH
MIN_SLOPE		0.000000
ALLOW_PONDING		NO
SKIP_STEADY_STATE 	NO
IGNORE_RAINFALL		NO
IGNORE_SNOWMELT		NO
IGNORE_GROUNDWATER	NO
IGNORE_QUALITY		NO

START_DATE		01/01/2002
START_TIME		00:00:00
REPORT_START_DATE	01/01/2002
REPORT_START_TIME	00:00
END_DATE		01/01/2002
END_TIME		24:00:00
SWEEP_START		01/01
SWEEP_END		12/31
DRY_DAYS		5.000000
REPORT_STEP		00:05:00
WET_STEP		01:00:00
DRY_STEP		23:00:00
ROUTING_STEP		300

INERTIAL_DAMPING	NONE
NORMAL_FLOW_LIMITED	BOTH
FORCE_MAIN_EQUATION	H-W
VARIABLE_STEP		0.750000
LENGTHENING_STEP	0
MIN_SURFAREA		0.000000
MINIMUM_STEP		0.5


[FILES]

[RAINGAGES]

[HYDROGRAPHS]

[TEMPERATURE]

[ADJUSTMENTS]

[SUBCATCHMENTS]

[SUBAREAS]

[INFILTRATION]

[AQUIFERS]

[GROUNDWATER]

[GWF]

[SNOWPACKS]

[JUNCTIONS]
; MS-INV-7.17
5003	4051.282000	7.170000	0.000000	0.000000	0.000000
; MS-INV-10.05
5004	4051.937000	10.050000	0.000000	0.000000	0.000000
; MS-INV-10.59
5005	4052.538000	10.590000	0.000000	0.000000	0.000000
; MS-INV-11.65
5006	4055.971000	11.650000	0.000000	0.000000	0.000000
; MS-INV-12.56
5007	4060.229000	12.560000	0.000000	0.000000	0.000000
; MS-INV-11.20
5008	4062.185000	11.200000	0.000000	0.000000	0.000000
; MS-INV-14.05OUT-6.0-INFROMSCHOOL
5009	4065.875000	14.050000	0.000000	0.000000	0.000000
; MS-INV-11.83
5010	4069.953000	11.830000	0.000000	0.000000	0.000000
; MS-INV-11.15
5011	4072.992000	11.150000	0.000000	0.000000	0.000000
; MS-INV-12.73
5012	4075.623000	12.730000	0.000000	0.000000	0.000000
; MS-INV-9.74
5013	4079.452000	9.740000	0.000000	0.000000	0.000000
; MS-INV-9.77
5014	4080.229000	9.770000	0.000000	0.000000	0.000000
; MS-INV-8.45
5015	4083.019000	8.450000	0.000000	0.000000	0.000000
; MS-INV-9.00
5016	4084.727000	9.000000	0.000000	0.000000	0.000000
; MS-INV-9.22
5017	4088.632000	9.220000	0.000000	0.000000	0.000000
; MS-INV-6.33
5018	4087.743000	6.330000	0.000000	0.000000	0.000000
; MS-INV-6.92
5019	4085.374000	6.920000	0.000000	0.000000	0.000000
; MS-INV-7.38
5021	4093.521000	7.380000	0.000000	0.000000	0.000000
; MS-INV-9.75
5022	4090.858000	9.750000	0.000000	0.000000	0.000000
; MS-INV-9.29
5023	4092.004000	9.290000	0.000000	0.000000	0.000000
; MS-INV-8.03
5024	4087.907000	8.030000	0.000000	0.000000	0.000000
; MS-INV-7.32
5025	4084.123000	7.320000	0.000000	0.000000	0.000000
; MS-INV-10.1
5026	4076.217000	10.100000	0.000000	0.000000	0.000000
; MS-INV-7.80
5027	4070.049000	7.800000	0.000000	0.000000	0.000000
; MS-INV-8.05
5028	4064.885000	8.050000	0.000000	0.000000	0.000000
; MS-INV-5.55
5031	4097.009000	5.550000	0.000000	0.000000	0.000000
; MS-INV-4.90
5032	4098.062000	4.900000	0.000000	0.000000	0.000000
; MS-INV-5.00
5034	4099.056000	5.050000	0.000000	0.000000	0.000000
; MS-INV-5.00-INV3.20
5035	4105.299000	5.000000	0.000000	0.000000	0.000000
; MS-INV-5.98-INV-4.98
5036	4099.965000	5.980000	0.000000	0.000000	0.000000
; MS-INV-9.20
5037	4100.266000	9.200000	0.000000	0.000000	0.000000
; MS-INV-6.42
5038	4102.949000	6.420000	0.000000	0.000000	0.000000
; MS-INV-7.98
5039	4104.459000	7.980000	0.000000	0.000000	0.000000
; MS-INV-NOTFOUND
5040	4108.000000	8.577000	0.000000	0.000000	0.000000
; MS-INV-9.05
5041	4105.576000	9.050000	0.000000	0.000000	0.000000
; MS-INV-9.93
5042	4107.656000	9.930000	0.000000	0.000000	0.000000
; MS-INV-4.43
5043	4111.237000	4.430000	0.000000	0.000000	0.000000
; MS-INV-5.76
5044	4116.859000	5.760000	0.000000	0.000000	0.000000
; MS-INV-12.10
5045	4114.495000	12.100000	0.000000	0.000000	0.000000
; MS-INV-10.89
5046	4116.497000	10.890000	0.000000	0.000000	0.000000
; MS-NOT-FOUND
5049	4080.100000	6.841000	0.000000	0.000000	0.000000
; MS-GRINDING-STATION
5050	4086.950000	6.000000	0.000000	0.000000	0.000000
; MS-INV-7.22
5051	4094.113000	7.220000	0.000000	0.000000	0.000000
; MS-INV-9.13
5052	4101.314000	9.130000	0.000000	0.000000	0.000000
; MS-INV-7.57
5053	4112.241000	7.570000	0.000000	0.000000	0.000000
; MS-INV-7.77
5054	4122.412000	7.770000	0.000000	0.000000	0.000000
; MS-INV-6.84
5055	4130.436000	6.840000	0.000000	0.000000	0.000000
; MS-INV-9.89
5056	4135.446000	9.890000	0.000000	0.000000	0.000000
; MS-INV-11.90
5057	4152.136000	11.950000	0.000000	0.000000	0.000000
; MS-INV-12.17
5058	4153.595000	12.170000	0.000000	0.000000	0.000000
; MS-INV-12.20-INV-5.93
5059	4157.267000	12.200000	0.000000	0.000000	0.000000
; MS-INV-10.45
5060	4159.343000	10.450000	0.000000	0.000000	0.000000
; MS-INV-11.65
5061	4167.627000	11.650000	0.000000	0.000000	0.000000
; MS-INV-6.14
5062	4168.116000	6.140000	0.000000	0.000000	0.000000
; MS-INV-5.58
5063	4169.027000	5.580000	0.000000	0.000000	0.000000
; MS-INV-7.96
5064	4183.269000	7.960000	0.000000	0.000000	0.000000
; MS-INV-5.41
5065	4186.629000	5.410000	0.000000	0.000000	0.000000
; MS-INV-4.60
5066	4187.853000	4.600000	0.000000	0.000000	0.000000
; MS-INV-12.00-INV-10.8
5067	4185.737000	12.000000	0.000000	0.000000	0.000000
; MS-INV-11.64
5068	4205.524000	11.640000	0.000000	0.000000	0.000000
; MS-INV-11.11
5069	4195.786000	11.110000	0.000000	0.000000	0.000000
; MS-INV-7.40
5070	4152.175000	7.400000	0.000000	0.000000	0.000000
; MS-COVERED-7ft depth guess
5071	4140.125000	6.900000	0.000000	0.000000	0.000000
; MS-INV-7.68
5072	4146.307000	7.680000	0.000000	0.000000	0.000000
; MS-INV-8.30
5073	4156.428000	8.300000	0.000000	0.000000	0.000000
; MS-INV-8.50
5074	4167.831000	8.500000	0.000000	0.000000	0.000000
; MS-INV-8.32
5075	4182.551000	8.320000	0.000000	0.000000	0.000000
; MS-INV-8.76
5076	4197.656000	8.760000	0.000000	0.000000	0.000000
; MS-INV-11.54
5077	4204.600000	11.540000	0.000000	0.000000	0.000000
; MS-INV-5.71
5078	4223.074000	5.710000	0.000000	0.000000	0.000000
; MS-INV-9.27
5079	4283.124000	9.270000	0.000000	0.000000	0.000000
; MS-INV-11.51
5080	4308.103000	11.510000	0.000000	0.000000	0.000000
; MS-INV-4.55
5081	4219.179000	4.550000	0.000000	0.000000	0.000000
; MS-INV-8.59
5082	4225.700000	8.590000	0.000000	0.000000	0.000000
; MS-BURIED
5083	4231.642000	11.808000	0.000000	0.000000	0.000000
; MS-INV-16.60
5084	4234.653000	16.600000	0.000000	0.000000	0.000000
; MS-INV-18.63
5085	4246.523000	18.630000	0.000000	0.000000	0.000000
; MS-INV-5.04
5086	4262.338000	5.040000	0.000000	0.000000	0.000000
; MS-INV-7.19
5087	4469.509000	7.190000	0.000000	0.000000	0.000000
; MS-INV-11.18
5088	4478.545000	11.180000	0.000000	0.000000	0.000000
; MS-INV-8.88
5089	4480.038000	8.880000	0.000000	0.000000	0.000000
; MS-INV-7.86
5090	4485.056000	7.860000	0.000000	0.000000	0.000000
; MS-INV-10.04
5091	4481.517000	10.040000	0.000000	0.000000	0.000000
; MS-INV-13.20
5092	4486.142000	13.200000	0.000000	0.000000	0.000000
; MS-INV-4.86
5093	4486.935000	4.860000	0.000000	0.000000	0.000000
; MS-INV-3.83
5094	4487.652000	3.830000	0.000000	0.000000	0.000000
; MS-INV-3.93-INV-3.30
5095	4488.576000	3.930000	0.000000	0.000000	0.000000
; MS-INV-7.36
5096	4501.387000	7.360000	0.000000	0.000000	0.000000
; MS-INV-6.11
5097	4509.369000	6.110000	0.000000	0.000000	0.000000
; MS-INV-12.20
5098	4541.113000	12.200000	0.000000	0.000000	0.000000
; MS-INV-12.97
5099	4548.351000	12.970000	0.000000	0.000000	0.000000
; MS-INV-14.60
5100	4553.313000	14.600000	0.000000	0.000000	0.000000
; MS-INV-6.80
5101	4530.979000	6.800000	0.000000	0.000000	0.000000
; MS-INV-6.04
5102	4528.077000	6.040000	0.000000	0.000000	0.000000
; MS-INV-7.13
5103	4517.387000	7.130000	0.000000	0.000000	0.000000
; MS-INV-7.05
5104	4505.247000	7.050000	0.000000	0.000000	0.000000
; MS-INV-10.07
5107	4556.314000	10.070000	0.000000	0.000000	0.000000
; MS-INV-8.58
5108	4562.734000	8.580000	0.000000	0.000000	0.000000
; MS-INV-10.22
5112	4583.685000	10.220000	0.000000	0.000000	0.000000
; MS-INV-6.47
5114	4603.877000	6.370000	0.000000	0.000000	0.000000
; MS-INV-7.00
5115	4605.472000	7.000000	0.000000	0.000000	0.000000
; MS-INV-11.81
5116	4603.659000	11.810000	0.000000	0.000000	0.000000
; MS-INV-14.48
5118	4636.841000	14.480000	0.000000	0.000000	0.000000
; MS-INV-10.58
5119	4653.005000	10.580000	0.000000	0.000000	0.000000
; MS-INV-13.22
5120	4650.093000	13.220000	0.000000	0.000000	0.000000
; MS-INV-11.62
5121	4187.612000	11.620000	0.000000	0.000000	0.000000
; MS-INV-8.61
5122	4191.295000	8.610000	0.000000	0.000000	0.000000
; MS-INV-11.01
5123	4177.051000	11.010000	0.000000	0.000000	0.000000
; MS-INV-10.20
5124	4176.638000	10.200000	0.000000	0.000000	0.000000
; MS-INV-11.67
5125	4166.134000	11.670000	0.000000	0.000000	0.000000
; MS-INV-10.36
5126	4167.507000	10.360000	0.000000	0.000000	0.000000
; MS-INV-8.35
5127	4164.950000	8.350000	0.000000	0.000000	0.000000
; MS-INV-6.11
5128	4155.405000	6.110000	0.000000	0.000000	0.000000
; MS-INV-5.43
5129	4196.262000	5.430000	0.000000	0.000000	0.000000
; MS-INV-7.83
5130	4188.735000	7.830000	0.000000	0.000000	0.000000
; MS-INV-7.43
5131	4172.226000	7.430000	0.000000	0.000000	0.000000
; MS-INV-10.80-INV-4.93
5132	4161.319000	10.800000	0.000000	0.000000	0.000000
; MS-INV-5.07
5133	4163.726000	5.070000	0.000000	0.000000	0.000000
; MS-INV-8.48
5134	4170.492000	8.480000	0.000000	0.000000	0.000000
; MS-INV-8.11
5135	4187.357000	8.110000	0.000000	0.000000	0.000000
; MS-INV-7.10
5136	4193.028000	7.100000	0.000000	0.000000	0.000000
; MS-INV-9.92-INV-6.60
5137	4183.191000	9.920000	0.000000	0.000000	0.000000
; MS-INV-8.43
5139	4157.680000	8.430000	0.000000	0.000000	0.000000
; MS-INV-10.00
5140	4158.892000	10.000000	0.000000	0.000000	0.000000
; MS-INV-8.48
5141	4185.709000	8.480000	0.000000	0.000000	0.000000
; MS-INV-8.44
5142	4177.194000	8.440000	0.000000	0.000000	0.000000
; MS-INV-9.65
5143	4163.514000	9.650000	0.000000	0.000000	0.000000
; MS-INV-6.68
5144	4151.637000	6.680000	0.000000	0.000000	0.000000
; MS-INV-7.79
5145	4155.910000	7.790000	0.000000	0.000000	0.000000
; MS-INV-7.52
5146	4147.689000	7.520000	0.000000	0.000000	0.000000
; MS-INV-11.93
5147	4146.308000	11.930000	0.000000	0.000000	0.000000
; MS-INV-9.30
5148	4146.488000	9.300000	0.000000	0.000000	0.000000
; MS-INV-8.65
5149	4154.584000	8.650000	0.000000	0.000000	0.000000
; MS-INV-7.67
5150	4164.121000	7.670000	0.000000	0.000000	0.000000
; MS-INV-8.85
5151	4155.243000	8.850000	0.000000	0.000000	0.000000
; MS-INV-6.95
5152	4175.964000	6.950000	0.000000	0.000000	0.000000
; MS-INV-4.50
5153	4189.307000	4.500000	0.000000	0.000000	0.000000
; MS-INV-13.15
5154	4189.558000	13.150000	0.000000	0.000000	0.000000
; MS-INV-9.90-INV-5.18
5155	4193.942000	9.900000	0.000000	0.000000	0.000000
; MS-INV-9.85
5156	4193.786000	9.950000	0.000000	0.000000	0.000000
; MS-INV-6.30
5157	4201.812000	6.300000	0.000000	0.000000	0.000000
; MS-INV-4.98
5159	4205.187000	4.980000	0.000000	0.000000	0.000000
; MS-INV-12.55
5160	4191.081000	12.550000	0.000000	0.000000	0.000000
; MS-INV-12.35
5161	4191.615000	12.350000	0.000000	0.000000	0.000000
; MS-INV-5.46
5163	4208.416000	5.460000	0.000000	0.000000	0.000000
; MS-INV-12.57
5164	4193.816000	12.570000	0.000000	0.000000	0.000000
; MS-INV-9.80
5165	4196.297000	9.900000	0.000000	0.000000	0.000000
; MS-INV-10.12
5166	4196.491000	10.120000	0.000000	0.000000	0.000000
; MS-INV-8.28
5167	4208.165000	8.280000	0.000000	0.000000	0.000000
; MS-INV-8.75
5168	4219.569000	8.750000	0.000000	0.000000	0.000000
; MS-INV-12.63
5169	4195.087000	12.630000	0.000000	0.000000	0.000000
; MS-INV-9.28
5170	4197.433000	9.280000	0.000000	0.000000	0.000000
; MS-INV-9.05
5171	4208.561000	9.050000	0.000000	0.000000	0.000000
; MS-INV-9.03
5172	4229.835000	9.030000	0.000000	0.000000	0.000000
; MS-INV-8.71
5173	4264.107000	8.710000	0.000000	0.000000	0.000000
; MS-INV-6.63
5174	4215.615000	6.630000	0.000000	0.000000	0.000000
; MS-INV-10.48
5175	4211.872000	10.480000	0.000000	0.000000	0.000000
; MS-INV-10.60
5181	4185.404000	10.600000	0.000000	0.000000	0.000000
; MS-INV-7.57
5182	4176.380000	7.570000	0.000000	0.000000	0.000000
; MS-INV-7.73
5183	4172.220000	7.730000	0.000000	0.000000	0.000000
; MS-INV-4.04
5184	4173.141000	4.040000	0.000000	0.000000	0.000000
; MS-INV-11.72
5185	4167.589000	11.720000	0.000000	0.000000	0.000000
; MS-SEALEDSHUT-24FTOS
5186	0.100000	4176.894000	0.000000	0.000000	0.000000
; MS-INV-6.58
5187	4188.333000	6.580000	0.000000	0.000000	0.000000
; MS-INV-11.15
5188	4184.534000	11.150000	0.000000	0.000000	0.000000
; MS-NOTFOUND
5189	4193.903000	0.000000	0.000000	0.000000	0.000000
; MS-INV-5.21
5190	4195.370000	5.210000	0.000000	0.000000	0.000000
; MS-INV-4.60
5191	4193.786000	4.600000	0.000000	0.000000	0.000000
; CPGWHITE
CPGWHITE	4656.048550	0.000000	0.000000	0.000000	0.000000
; MS-INV-6.61OUT
JT1002	4770.275460	6.610000	0.000000	0.000000	0.000000
; MS-INV-6.09OUT
JT1003	4763.148440	6.090000	0.000000	0.000000	0.000000
; MS-INV-6.32OUT
JT1004	4758.168210	6.320000	0.000000	0.000000	0.000000
; MS-INV-6.51OUT
JT1005	4753.382540	6.510000	0.000000	0.000000	0.000000
; MS-INV-6.96OUT
JT1006	4746.620060	6.960000	0.000000	0.000000	0.000000
; MS-INV-6.83OUT
JT1007	4742.121940	6.830000	0.000000	0.000000	0.000000
; MS-INV-7.58OUT
JT1008	4737.719350	7.580000	0.000000	0.000000	0.000000
; MS-INV-7.94OUT
JT1009	4729.914380	7.940000	0.000000	0.000000	0.000000
; MS-INV-8.89OUT
JT1010	4720.555860	8.890000	0.000000	0.000000	0.000000
; MS-INV-7.32OUT
JT1011	4713.808000	7.319570	0.000000	0.000000	0.000000
; MS-INV-14.67OUT-8.68DROP
JT1012	4695.924510	14.670000	0.000000	0.000000	0.000000
; MS-INV-13.67OUT
JT1013	4696.118000	13.669640	0.000000	0.000000	0.000000
; MS-INV-12.37OUT
JT1014	4694.820920	12.370000	0.000000	0.000000	0.000000
; MS-INV-9.23OUT
JT1015	4693.350890	9.230000	0.000000	0.000000	0.000000
; MS-INV-14.31OUT
JT1016	4684.036090	14.310000	0.000000	0.000000	0.000000
; MS-INV-18.30OUT
JT1017	4674.590140	18.300000	0.000000	0.000000	0.000000
; MS-INV-10.06OUT
JT1018	4697.521340	10.060000	0.000000	0.000000	0.000000
; MS-INV-6.73OUT
JT1019	4727.826160	6.730000	0.000000	0.000000	0.000000
; MS-INV-6.72OUT
JT1020	4730.084440	6.720000	0.000000	0.000000	0.000000
; MS-INV-6.58OUT
JT1021	4731.010250	6.580000	0.000000	0.000000	0.000000
; MS-INV-6.73OUT
JT1022	4732.565000	6.730000	0.000000	0.000000	0.000000
; MS-INV-7.03OUT
JT1023	4730.691000	7.030440	0.000000	0.000000	0.000000
; MS-INV-12.32OUT
JT1024	4673.509810	12.320000	0.000000	0.000000	0.000000
; MS-INV-11.38OUT
JT1025	4672.382800	11.380000	0.000000	0.000000	0.000000
; MS-INV-7.87OUT
JT1026	4679.497300	7.870000	0.000000	0.000000	0.000000
; MS-INV-7.38OUT
JT1027	4682.328830	7.380000	0.000000	0.000000	0.000000
; MS-INV-8.42OUT
JT1028	4722.566680	8.420000	0.000000	0.000000	0.000000
; MS-INV-6.07OUT
JT1029	4720.523440	6.070000	0.000000	0.000000	0.000000
; MS-INV-8.39OUT
JT1030	4719.493670	8.390000	0.000000	0.000000	0.000000
; MS-INV-8.72OUT
JT1031	4716.238290	8.720000	0.000000	0.000000	0.000000
; MS-INV-8.62OUT
JT1032	4713.260070	8.620000	0.000000	0.000000	0.000000
; MS-INV-9.45OUT
JT1033	4709.319360	9.450000	0.000000	0.000000	0.000000
; MS-INV-8.45OUT
JT1034	4700.633600	8.450000	0.000000	0.000000	0.000000
; MS-INV-8.43OUT
JT1035	4695.579820	8.430000	0.000000	0.000000	0.000000
; MS-INV-8.64OUT
JT1036	4689.947870	8.640000	0.000000	0.000000	0.000000
; MS-INV-7.46OUT
JT1037	4683.349520	7.460000	0.000000	0.000000	0.000000
; MS-INV-9.45OUT
JT1038	4679.371300	9.450000	0.000000	0.000000	0.000000
; MS-INV-7.77OUT
JT1039	4678.246540	7.770000	0.000000	0.000000	0.000000
; MS-INV-6.84OUT
JT1040	4676.993020	6.840000	0.000000	0.000000	0.000000
; MS-INV-9.50OUT
JT1041	4675.367790	9.500000	0.000000	0.000000	0.000000
; MS-INV-10.74OUT
JT1042	4674.008920	10.740000	0.000000	0.000000	0.000000
; MS-INV-8.78OUT
JT1043	4670.311390	8.780000	0.000000	0.000000	0.000000
; MS-INV-7.17OUT
JT1045	4670.873550	7.170000	0.000000	0.000000	0.000000
; MS-INV-7.26OUT
JT1046	4668.755130	7.260000	0.000000	0.000000	0.000000
; MS-INV-7.95OUT
JT1047	4664.678280	7.950000	0.000000	0.000000	0.000000
; MS-INV-10.90OUT
JT1048	4656.479680	10.900000	0.000000	0.000000	0.000000
; MS-INV-10.96OUT
JT1049	4656.601460	10.960000	0.000000	0.000000	0.000000
; MS-INV-9.66OUT
JT1050	4654.783280	9.660000	0.000000	0.000000	0.000000
; MS-INV-12.18OUT
JT1051	4651.664870	12.180000	0.000000	0.000000	0.000000
; MS-INV-10.87OUT
JT1052	4659.773780	10.870000	0.000000	0.000000	0.000000
; MS-INV-12.37OUT
JT1053	4665.437080	12.370000	0.000000	0.000000	0.000000
; MS-INV-14.47OUT
JT1054	4670.542600	14.470000	0.000000	0.000000	0.000000
; MS-INV-14.64OUT
JT1055	4682.686310	14.640000	0.000000	0.000000	0.000000
; MS-INV-7.44OUT
JT1056	4701.853510	7.440000	0.000000	0.000000	0.000000
; MS-INV-11.32OUT
JT1057	4709.460640	11.320000	0.000000	0.000000	0.000000
; MS-INV-12.66OUT
JT1058	4712.457660	12.660000	0.000000	0.000000	0.000000
; MS-INV-14.33OUT
JT1059	4720.692000	14.330000	0.000000	0.000000	0.000000
; MS-INV-11.04OUT
JT1060	4647.218040	11.040000	0.000000	0.000000	0.000000
; MS-INV-11.06OUT
JT1061	4640.910960	11.060000	0.000000	0.000000	0.000000
; MS-INV-10.19OUT
JT1062	4638.865950	10.190000	0.000000	0.000000	0.000000
; MS-INV-11.90OUT
JT1063	4649.300400	11.900000	0.000000	0.000000	0.000000
; MS-INV-10.00OUT
JT1064	4667.228350	10.000000	0.000000	0.000000	0.000000
; MS-INV-9.80OUT
JT1065	4636.132420	9.800000	0.000000	0.000000	0.000000
; MS-INV-9.84OUT
JT1066	4626.316320	9.840000	0.000000	0.000000	0.000000
; MS-INV-8.94OUT
JT1067	4623.674670	8.940000	0.000000	0.000000	0.000000
; MS-INV-10.55OUT
JT1068	4619.244650	10.550000	0.000000	0.000000	0.000000
; MS-INV-9.67OUT
JT1069	4618.771170	9.670000	0.000000	0.000000	0.000000
; MS-INV-6.91OUT
JT1070	4624.690260	6.910000	0.000000	0.000000	0.000000
; MS-INV-12.05OUT
JT1071	4641.658050	12.050000	0.000000	0.000000	0.000000
; MS-INV-9.76OUT
JT1072	4638.581000	9.760350	0.000000	0.000000	0.000000
; MS-INV-8.62OUT
JT1073	4659.704810	8.620000	0.000000	0.000000	0.000000
; MS-INV-5.00OUT
JT1074	4657.281840	5.000000	0.000000	0.000000	0.000000
; MS-INV-8.84OUT
JT1075	4653.586440	8.840000	0.000000	0.000000	0.000000
; MS-INV-8.84OUT
JT1076	4642.620410	8.840000	0.000000	0.000000	0.000000
; MS-INV-8.69OUT
JT1077	4647.881290	8.690000	0.000000	0.000000	0.000000
; MS-INV-11.14OUT
JT1078	4629.537000	11.139500	0.000000	0.000000	0.000000
; MS-INV-11.14OUT
JT1079	4626.823060	11.140000	0.000000	0.000000	0.000000
; MS-INV-10.27OUT
JT1080	4628.766680	10.270000	0.000000	0.000000	0.000000
; MS-INV-9.07OUT
JT1081	4636.284520	9.070000	0.000000	0.000000	0.000000
; MS-INV-9.12OUT
JT1082	4643.282990	9.120000	0.000000	0.000000	0.000000
; MS-INV-9.70OUT
JT1083	4650.121960	9.700000	0.000000	0.000000	0.000000
; MS-INV-9.84OUT
JT1084	4656.664570	9.840000	0.000000	0.000000	0.000000
; MS-INV-9.88OUT
JT1085	4663.674180	9.880000	0.000000	0.000000	0.000000
; MS-INV-6.38OUT
JT1086	4667.355350	6.380000	0.000000	0.000000	0.000000
; MS-INV-9.48OUT
JT1087	4670.412690	9.480000	0.000000	0.000000	0.000000
; MS-INV-8.22OUT
JT1088	4674.658580	8.220000	0.000000	0.000000	0.000000
; MS-INV-6.00OUT
JT1089	4676.262230	6.000000	0.000000	0.000000	0.000000
; MS-INV-11.01OUT
JT1090	4618.993110	11.010000	0.000000	0.000000	0.000000
; MS-INV-10.72OUT
JT1091	4613.147000	10.720000	0.000000	0.000000	0.000000
; MS-INV-10.38OUT
JT1092	4617.659870	10.380000	0.000000	0.000000	0.000000
; MS-INV-10.25OUT
JT1093	4610.232550	10.250000	0.000000	0.000000	0.000000
; MS-INV-10.16OUT
JT1094	4605.052320	10.160000	0.000000	0.000000	0.000000
; MS-INV-10.91OUT
JT1095	4600.279440	10.910000	0.000000	0.000000	0.000000
; MS-INV-10.80OUT
JT1096	4591.857250	10.800000	0.000000	0.000000	0.000000
; MS-INV-9.96OUT
JT1098	4592.481110	9.960000	0.000000	0.000000	0.000000
; MS-INV-9.02OUT
JT1099	4594.145070	9.020000	0.000000	0.000000	0.000000
; MS-INV-8.93OUT
JT1100	4597.225670	8.930000	0.000000	0.000000	0.000000
; MS-INV-6.65OUT
JT1101	4590.906590	6.650000	0.000000	0.000000	0.000000
; MS-INV-8.15OUT-5.92DROP
JT1102	4593.322720	8.150000	0.000000	0.000000	0.000000
; MS-INV-6.18OUT
JT1103	4597.871000	6.179920	0.000000	0.000000	0.000000
; MS-INV-8.36OUT
JT1104	4597.248320	8.360000	0.000000	0.000000	0.000000
; MS-INV-8.03OUT
JT1105	4595.704000	8.030160	0.000000	0.000000	0.000000
; MS-INV-5.80OUT
JT1106	4594.622220	5.800000	0.000000	0.000000	0.000000
; MS-INV-4.70OUT
JT1107	4595.446420	4.700000	0.000000	0.000000	0.000000
; MS-INV-6.40OUT
JT1108	4597.532490	6.400000	0.000000	0.000000	0.000000
; MS-INV-7.85OUT-6.00DROP
JT1109	4598.415250	7.850000	0.000000	0.000000	0.000000
; MS-INV-7.93OUT-6.10DROP
JT1110	4602.440000	7.929930	0.000000	0.000000	0.000000
; MS-INV-5.33OUT
JT1111	4608.779000	5.330170	0.000000	0.000000	0.000000
; MS-INV-8.22OUT
JT1112	4610.499320	8.220000	0.000000	0.000000	0.000000
; MS-INV-4.14OUT
JT1113	4611.690930	4.140000	0.000000	0.000000	0.000000
; MS-INV-4.76OUT
JT1114	4615.118720	4.760000	0.000000	0.000000	0.000000
; MS-INV-8.72OUT
JT1115	4614.497310	8.720000	0.000000	0.000000	0.000000
; MS-INV-12.43OUT
JT1116	4611.756960	12.430000	0.000000	0.000000	0.000000
; MS-INV-6.22OUT
JT1117	4620.552000	6.120140	0.000000	0.000000	0.000000
; MS-INV-6.11OUT
JT1118	4623.786410	6.110000	0.000000	0.000000	0.000000
; MS-INV-7.25OUT
JT1119	4623.340000	7.249780	0.000000	0.000000	0.000000
; MS-INV-6.90OUT
JT1120	4626.837340	6.900000	0.000000	0.000000	0.000000
; MS-INV-7.90OUT
JT1121	4625.250430	7.900000	0.000000	0.000000	0.000000
; MS-INV-6.64OUT
JT1122	4635.423540	6.640000	0.000000	0.000000	0.000000
; MS-INV-9.60OUT-7.72DROP
JT1123	4603.144030	9.600000	0.000000	0.000000	0.000000
; MS-INV-8.06OUT
JT1125	4516.298590	8.060000	0.000000	0.000000	0.000000
; MS-INV-7.97OUT
JT1126	4522.526200	7.970000	0.000000	0.000000	0.000000
; MS-INV-8.94OUT
JT1127	4528.566290	8.940000	0.000000	0.000000	0.000000
; MS-INV-8.58OUT
JT1128	4534.399440	8.580000	0.000000	0.000000	0.000000
; MS-INV-8.82OUT
JT1129	4535.842190	8.820000	0.000000	0.000000	0.000000
; MS-INV-12.46OUT
JT1130	4544.512790	12.460000	0.000000	0.000000	0.000000
; MS-INV-12.70OUT
JT1131	4561.384750	12.700000	0.000000	0.000000	0.000000
; MS-INV-9.13OUT
JT1132	4580.942090	9.130000	0.000000	0.000000	0.000000
; MS-INV-9.26OUT
JT1133	4602.773170	9.260000	0.000000	0.000000	0.000000
; MS-INV-7.23OUT
JT1134	4641.835760	7.230000	0.000000	0.000000	0.000000
; MS-INV-6.57OUT
JT1135	4658.978800	6.570000	0.000000	0.000000	0.000000
; MS-INV-4.64OUT
JT1136	4667.610710	4.640000	0.000000	0.000000	0.000000
; MS-INV-5.54OUT
JT1137	4671.998370	5.540000	0.000000	0.000000	0.000000
; MS-INV-4.00OUT
JT1138	4687.601730	4.000000	0.000000	0.000000	0.000000
; MS-INV-3.80OUT
JT1139	4697.089500	3.800000	0.000000	0.000000	0.000000
; MS-INV-3.70OUT
JT1140	4699.874970	3.700000	0.000000	0.000000	0.000000
; MS-INV-3.67OUT
JT1141	4704.276310	3.670000	0.000000	0.000000	0.000000
; MS-INV-3.86OUT
JT1142	4721.495930	3.860000	0.000000	0.000000	0.000000
; MS-INV-3.70OUT
JT1143	4732.966600	3.700000	0.000000	0.000000	0.000000
; MS-INV-6.20OUT
JT1144	4734.453980	6.200000	0.000000	0.000000	0.000000
; MS-INV-11.46OUT
JT1145	4735.743680	11.460000	0.000000	0.000000	0.000000
; MS-INV-5.32OUT
JT1146	4744.131330	5.320000	0.000000	0.000000	0.000000
; MS-INV-3.83OUT
JT1147	4744.837630	3.830000	0.000000	0.000000	0.000000
; MS-INV-7.95OUT
JT1148	4732.957640	7.950000	0.000000	0.000000	0.000000
; MS-INV-9.87OUT
JT1149	4723.373470	9.870000	0.000000	0.000000	0.000000
; MS-INV-9.94OUT
JT1150	4719.039250	9.940000	0.000000	0.000000	0.000000
; MS-INV-12.26OUT
JT1151	4713.434080	12.260000	0.000000	0.000000	0.000000
; MS-INV-4.62OUT
JT1152	4715.456850	4.620000	0.000000	0.000000	0.000000
; MS-INV-5.55OUT
JT1153	4709.445920	5.550000	0.000000	0.000000	0.000000
; MS-INV-7.12OUT
JT1154	4677.261680	7.120000	0.000000	0.000000	0.000000
; MS-INV-3.64OUT
JT1155	4688.186500	3.640000	0.000000	0.000000	0.000000
; MS-INV-5.88OUT
JT1156	4687.782320	5.880000	0.000000	0.000000	0.000000
; MS-INV-10.17OUT-6.65DROP
JT1157	4686.780940	10.170000	0.000000	0.000000	0.000000
; MS-INV-4.40OUT
JT1158	4741.902320	4.400000	0.000000	0.000000	0.000000
; MS-INV-4.76OUT
JT1159	4735.066770	4.760000	0.000000	0.000000	0.000000
; MS-INV-4.00OUT
JT1160	4717.848000	3.999700	0.000000	0.000000	0.000000
; MS-INV-4.46OUT
JT1161	4685.088370	4.460000	0.000000	0.000000	0.000000
; MS-INV-11.75OUT
JT1162	4683.785320	11.750000	0.000000	0.000000	0.000000
; MS-INV-15.83OUT
JT1163	4683.328000	15.830030	0.000000	0.000000	0.000000
; MS-INV-3.44OUT
JT1164	4712.046440	3.440000	0.000000	0.000000	0.000000
; MS-INV-3.60OUT
JT1165	4728.117680	3.600000	0.000000	0.000000	0.000000
; MS-INV-3.54OUT
JT1166	4750.343120	3.540000	0.000000	0.000000	0.000000
; MS-INV-7.28OUT
JT1167	4607.964000	7.279700	0.000000	0.000000	0.000000
; MS-INV-7.80OUT
JT1168	4608.792440	7.800000	0.000000	0.000000	0.000000
; MS-INV-6.17OUT
JT1169	4610.106600	6.170000	0.000000	0.000000	0.000000
; MS-INV-3.90OUT
JT1170	4607.984240	3.900000	0.000000	0.000000	0.000000
; MS-INV-4.98OUT
JT1171	4616.003000	4.980100	0.000000	0.000000	0.000000
; MS-INV-9.80OUT-5.25DROP
JT1172	4609.837990	9.800000	0.000000	0.000000	0.000000
; MS-INV-7.00OUT
JT1173	4594.318000	6.999940	0.000000	0.000000	0.000000
; MS-INV-7.70OUT
JT1174	4595.462580	7.700000	0.000000	0.000000	0.000000
; MS-INV-8.59OUT
JT1175	4596.421210	8.590000	0.000000	0.000000	0.000000
; MS-INV-6.10OUT
JT1176	4603.448450	6.100000	0.000000	0.000000	0.000000
; MS-INV-5.34OUT
JT1177	4607.907030	5.340000	0.000000	0.000000	0.000000
; MS-INV-4.16OUT
JT1178	4606.683000	4.159650	0.000000	0.000000	0.000000
; MS-INV-7.55OUT
JT1179	4595.055980	7.550000	0.000000	0.000000	0.000000
; MS-INV-7.46OUT
JT1180	4597.009270	7.460000	0.000000	0.000000	0.000000
; MS-INV-6.59OUT
JT1181	4593.029210	6.590000	0.000000	0.000000	0.000000
; MS-INV-10.03OUT
JT1182	4587.960520	10.030000	0.000000	0.000000	0.000000
; MS-INV-9.81OUT
JT1183	4581.842960	9.810000	0.000000	0.000000	0.000000
; MS-INV-7.80OUT
JT1184	4577.696350	7.800000	0.000000	0.000000	0.000000
; MS-INV-7.10OUT
JT1186	4576.294060	7.100000	0.000000	0.000000	0.000000
; MS-INV-8.04OUT
JT1187	4572.103220	8.040000	0.000000	0.000000	0.000000
; MS-INV-7.69OUT
JT1188	4566.962520	7.690000	0.000000	0.000000	0.000000
; MS-INV-7.90OUT
JT1189	4560.542930	7.900000	0.000000	0.000000	0.000000
; MS-INV-8.21OUT
JT1190	4552.744630	8.210000	0.000000	0.000000	0.000000
; MS-INV-7.71OUT
JT1191	4548.971660	7.710000	0.000000	0.000000	0.000000
; MS-INV-7.81OUT
JT1192	4541.899150	7.810000	0.000000	0.000000	0.000000
; MS-INV-6.89OUT
JT1193	4535.980160	6.890000	0.000000	0.000000	0.000000
; MS-INV-7.74OUT
JT1194	4527.622050	7.740000	0.000000	0.000000	0.000000
; MS-INV-8.59OUT
JT1195	4521.854040	8.590000	0.000000	0.000000	0.000000
; MS-INV-8.29OUT
JT1196	4515.485910	8.290000	0.000000	0.000000	0.000000
; MS-INV-8.36OUT
JT1197	4511.611470	8.360000	0.000000	0.000000	0.000000
; MS-INV-7.76OUT
JT1198	4502.678690	7.760000	0.000000	0.000000	0.000000
; MS-INV-8.94OUT
JT1199	4497.829050	8.940000	0.000000	0.000000	0.000000
; MS-INV-8.70OUT
JT1200	4492.922790	8.700000	0.000000	0.000000	0.000000
; MS-INV-6.97OUT
JT1201	4483.125350	6.970000	0.000000	0.000000	0.000000
; MS-INV-8.47OUT
JT1202	4479.369700	8.470000	0.000000	0.000000	0.000000
; MS-INV-6.67OUT
JT1203	4485.221030	6.670000	0.000000	0.000000	0.000000
; MS-INV-11.77OUT
JT1204	4469.271330	11.770000	0.000000	0.000000	0.000000
; MS-INV-9.97OUT
JT1205	4461.200010	9.970000	0.000000	0.000000	0.000000
; MS-INV-6.77OUT
JT1206	4443.682980	6.770000	0.000000	0.000000	0.000000
; MS-INV-11.05OUT
JT1207	4442.424350	11.050000	0.000000	0.000000	0.000000
; MS-INV-9.05OUT
JT1208	4447.874020	9.050000	0.000000	0.000000	0.000000
; MS-INV-12.40OUT
JT1209	4452.280530	12.400000	0.000000	0.000000	0.000000
; MS-INV-12.27OUT
JT1210	4456.586090	12.270000	0.000000	0.000000	0.000000
; MS-INV-13.53OUT
JT1211	4461.286890	13.530000	0.000000	0.000000	0.000000
; MS-INV-9.1OUT
JT1212	4492.495800	9.100000	0.000000	0.000000	0.000000
; MS-INV-11.33OUT
JT1213	4493.988460	11.330000	0.000000	0.000000	0.000000
; MS-INV-11.20OUT
JT1214	4494.537820	11.200000	0.000000	0.000000	0.000000
; MS-INV-12.60OUT
JT1215	4494.948330	12.600000	0.000000	0.000000	0.000000
; MS-INV-11.990OUT
JT1216	4517.726350	11.990000	0.000000	0.000000	0.000000
; MS-INV-11.44OUT
JT1217	4516.674040	11.440000	0.000000	0.000000	0.000000
; MS-INV-14.53OUT
JT1218	4500.165200	14.530000	0.000000	0.000000	0.000000
; MS-INV-13.20OUT
JT1219	4495.562380	13.200000	0.000000	0.000000	0.000000
; MS-INV-10.96OUT
JT1220	4495.243370	10.960000	0.000000	0.000000	0.000000
; MS-INV-7.45OUT
JT1221	4554.964020	7.450000	0.000000	0.000000	0.000000
; MS-INV-8.37OUT
JT1222	4555.079270	8.370000	0.000000	0.000000	0.000000
; MS-INV-8.37OUT
JT1223	4551.082140	8.370000	0.000000	0.000000	0.000000
; MS-INV-7.99OUT
JT1224	4552.336690	7.990000	0.000000	0.000000	0.000000
; MS-INV-7.37OUT
JT1225	4549.764180	7.370000	0.000000	0.000000	0.000000
; MS-INV-7.94OUT
JT1226	4546.349130	7.940000	0.000000	0.000000	0.000000
; MS-INV-7.16OUT
JT1227	4543.471820	7.160000	0.000000	0.000000	0.000000
; MS-INV-6.29OUT
JT1228	4538.734220	6.290000	0.000000	0.000000	0.000000
; MS-INV-7.57-OUT
JT1229	4535.797130	7.570000	0.000000	0.000000	0.000000
; MS-INV-7.05-OUT
JT1230	4528.959660	7.050000	0.000000	0.000000	0.000000
; MS-INV-8.23-OUT
JT1231	4523.389760	8.230000	0.000000	0.000000	0.000000
; MS-INV-6.07-OUT
JT1232	4523.777470	6.070000	0.000000	0.000000	0.000000
; MS-INV-8.27-OUT
JT1233	4512.595840	8.270000	0.000000	0.000000	0.000000
; MS-INV-6.24-OUT
JT1234	4537.118900	6.240000	0.000000	0.000000	0.000000
; MS-INV-8.25-OUT
JT1235	4537.894240	8.250000	0.000000	0.000000	0.000000
; MS-INV-8.30-OUT
JT1236	4544.012240	8.300000	0.000000	0.000000	0.000000
; MS-INV-10.15-OUT
JT1239	4537.946150	10.150000	0.000000	0.000000	0.000000
; MS-INV-5.43OUT
JT1243	4631.988290	5.430000	0.000000	0.000000	0.000000
; MS-INV-8.18OUT
JT1244	4625.201000	8.180340	0.000000	0.000000	0.000000
; MS-INV-7.92OUT-3.55DROP
JT1245	4617.085000	7.920000	0.000000	0.000000	0.000000
; MS-INV-7.68OUT
JT1246	4607.073710	7.680000	0.000000	0.000000	0.000000
; MS-INV-5.93OUT
JT1247	4594.969130	5.930000	0.000000	0.000000	0.000000
; MS-INV-6.85OUT
JT1248	4579.967260	6.850000	0.000000	0.000000	0.000000
; MS-INV-7.84OUT
JT1249	4576.797520	7.840000	0.000000	0.000000	0.000000
; MS-INV-8.77OUT
JT1250	4574.844950	8.770000	0.000000	0.000000	0.000000
; MS-INV-8.11OUT
JT1251	4574.385070	8.110000	0.000000	0.000000	0.000000
; MS-INV-6.54OUT