[TITLE]
;;Project Title/Notes

[OPTIONS]
;;Option             Value
FLOW_UNITS           MGD
INFILTRATION         HORTON
FLOW_ROUTING         DYNWAVE
LINK_OFFSETS         DEPTH
MIN_SLOPE            0
ALLOW_PONDING        NO
SKIP_STEADY_STATE    NO

START_DATE           01/01/2002
START_TIME           00:00:00
REPORT_START_DATE    01/01/2002
REPORT_START_TIME    01:00:00
END_DATE             01/02/2002
END_TIME             12:00:00
SWEEP_START          01/01
SWEEP_END            12/31
DRY_DAYS             5.000000
REPORT_STEP          00:05:00
WET_STEP             01:00:00
DRY_STEP             23:00:00
ROUTING_STEP         0:01:00 

INERTIAL_DAMPING     NONE
NORMAL_FLOW_LIMITED  BOTH
FORCE_MAIN_EQUATION  H-W
VARIABLE_STEP        0.75
LENGTHENING_STEP     5
MIN_SURFAREA         12.557
MAX_TRIALS           8
HEAD_TOLERANCE       0.001
SYS_FLOW_TOL         5
LAT_FLOW_TOL         5
MINIMUM_STEP         0
THREADS              1

[EVAPORATION]
;;Data Source    Parameters
;;-------------- ----------------
CONSTANT         0.0
DRY_ONLY         NO

[JUNCTIONS]
;;Name           Elevation  MaxDepth   InitDepth  SurDepth   Aponded   
;;-------------- ---------- ---------- ---------- ---------- ----------
; 3-1-1
3-1-1            168.900000 10.500000  0.000000   0.000000   0.000000  
; 3-2-1
3-2-1            175.590000 11.800000  0.000000   0.000000   0.000000  
; 3-2-2
3-2-2            181.710000 12.800000  0.000000   0.000000   0.000000  
; 3-2-3
3-2-3            184.000000 12.000000  0.000000   0.000000   0.000000  
; 3-2-4
3-2-4            188.060000 12.940000  0.000000   0.000000   0.000000  
; 3-2-5
3-2-5            188.290000 7.710000   0.000000   0.000000   0.000000  
; 3-2-6
3-2-6            189.020000 2.980000   0.000000   0.000000   0.000000  
; 4-1-1
4-1-1            189.600000 8.400000   0.000000   0.000000   0.000000  
; 4-1-2
4-1-2            190.150000 13.850000  0.000000   0.000000   0.000000  
; 4-1-3
4-1-3            197.370000 14.630000  0.000000   0.000000   0.000000  
; 4-1-4
4-1-4            198.200000 15.800000  0.000000   0.000000   0.000000  
; 4-1-5
4-1-5            199.000000 19.000000  0.000000   0.000000   0.000000  
; 4-1-6
4-1-6            199.300000 20.700000  0.000000   0.000000   0.000000  
; 4-1-7
4-1-7            199.600000 18.400000  0.000000   0.000000   0.000000  
; 4-1-8
4-1-8            200.950000 14.050000  0.000000   0.000000   0.000000  
; 4-2-1
4-2-1            190.960000 10.040000  0.000000   0.000000   0.000000  
; 4-2-2
4-2-2            198.890000 9.000000   0.000000   0.000000   0.000000  
; 4-2-3
4-2-3            200.120000 10.150000  0.000000   0.000000   0.000000  
; 4-8-1
4-8-1            201.980000 11.020000  0.000000   0.000000   0.000000  
; LH-01
4-8-2            203.250000 5.750000   0.000000   0.000000   0.000000  
; 5-1-1
5-1-1            24.410000  17.200000  0.000000   0.000000   0.000000  
; 5-1-10
5-1-10           39.620000  12.100000  0.000000   0.000000   0.000000  
; 5-1-11
5-1-11           43.930000  11.400000  0.000000   0.000000   0.000000  
; 5-1-12
5-1-12           52.470000  13.440000  0.000000   0.000000   0.000000  
; 5-1-2
5-1-2            24.900000  15.100000  0.000000   0.000000   0.000000  
; 5-1-3
5-1-3            25.930000  13.350000  0.000000   0.000000   0.000000  
; 5-1-4
5-1-4            26.220000  9.200000   0.000000   0.000000   0.000000  
; 5-1-5
5-1-5            28.000000  6.710000   0.000000   0.000000   0.000000  
; 5-1-6
5-1-6            33.000000  3.440000   0.000000   0.000000   0.000000  
; 5-1-7
5-1-7            35.000000  6.850000   0.000000   0.000000   0.000000  
; 5-1-8
5-1-8            36.520000  18.800000  0.000000   0.000000   0.000000  
; 5-1-9
5-1-9            37.500000  10.580000  0.000000   0.000000   0.000000  
; 5-8-1
5-8-1            82.760000  8.300000   0.000000   0.000000   0.000000  

[OUTFALLS]
;;Name           Elevation  Type       Stage Data       Gated    Route To        
;;-------------- ---------- ---------- ---------------- -------- ----------------
; Main_LS
MAIN_LS          22.000000  FREE                        NO                       

[CONDUITS]
;;Name           From Node        To Node          Length     Roughness  InOffset   OutOffset  InitFlow   MaxFlow   
;;-------------- ---------------- ---------------- ---------- ---------- ---------- ---------- ---------- ----------
; 3-1-1L1
3-1-1L1          3-1-1            5-8-1            442.050000 0.013000   0.000000   0.350000   0.000000   0.000000  
; 3-2-1L1
3-2-1L1          3-2-1            3-1-1            304.810000 0.013000   0.000000   0.000000   0.000000   0.000000  
; 3-2-2L1
3-2-2L1          3-2-2            3-2-1            342.510000 0.013000   0.000000   0.250000   0.000000   0.000000  
; 3-2-3L1
3-2-3L1          3-2-3            3-2-2            123.560000 0.013000   0.000000   0.000000   0.000000   0.000000  
; 3-2-4L1
3-2-4L1          3-2-4            3-2-3            261.610000 0.013000   0.000000   0.000000   0.000000   0.000000  
; 3-2-5L1
3-2-5L1          3-2-5            3-2-4            122.430000 0.013000   0.000000   0.000000   0.000000   0.000000  
; 3-2-6L1
3-2-6L1          3-2-6            3-2-5            224.990000 0.013000   0.000000   0.000000   0.000000   0.000000  
; 4-1-1L1
4-1-1L1          4-1-1            3-2-6            158.240000 0.013000   0.000000   0.000000   0.000000   0.000000  
; 4-1-2L1
4-1-2L1          4-1-2            4-1-1            246.780000 0.013000   0.000000   0.000000   0.000000   0.000000  
; 4-1-3L1
4-1-3L1          4-1-3            4-1-2            418.580000 0.013000   0.000000   0.000000   0.000000   0.000000  
; 4-1-4L1
4-1-4L1          4-1-4            4-1-3            315.900000 0.013000   0.000000   0.000000   0.000000   0.000000  
; 4-1-5L1
4-1-5L1          4-1-5            4-1-4            289.470000 0.013000   0.000000   0.000000   0.000000   0.000000  
; 4-1-6L1
4-1-6L1          4-1-6            4-1-5            70.520000  0.013000   0.000000   0.000000   0.000000   0.000000  
; 4-1-7L1
4-1-7L1          4-1-7            4-1-6            88.800000  0.013000   0.000000   0.000000   0.000000   0.000000  
; 4-1-8L1
4-1-8L1          4-1-8            4-1-7            468.840000 0.013000   0.000000   0.000000   0.000000   0.000000  
; 4-2-1L1
4-2-1L1          4-2-1            4-1-2            256.410000 0.013000   0.000000   0.000000   0.000000   0.000000  
; 4-2-2L1
4-2-2L1          4-2-2            4-2-1            358.220000 0.013000   0.000000   0.000000   0.000000   0.000000  
; 4-2-3L1
4-2-3L1          4-2-3            4-2-2            374.830000 0.013000   0.000000   0.100000   0.000000   0.000000  
; 4-8-1L1
4-8-1L1          4-8-1            4-1-8            441.720000 0.013000   0.000000   0.000000   0.000000   0.000000  
; 4-8-2L1
4-8-2L1          4-8-2            4-8-1            172.200000 0.013000   0.000000   0.000000   0.000000   0.000000  
; 5-1-10L1
5-1-10L1         5-1-10           5-1-9            245.690000 0.013000   0.000000   0.000000   0.000000   0.000000  
; 5-1-11L1
5-1-11L1         5-1-11           5-1-10           274.190000 0.013000   0.000000   0.450000   0.000000   0.000000  
; 5-1-12L1
5-1-12L1         5-1-12           5-1-11           272.000000 0.013000   0.000000   0.000000   0.000000   0.000000  
; 5-1-1L1
5-1-1L1          5-1-1            MAIN_LS          142.000000 0.013000   0.000000   0.000000   0.000000   0.000000  
; 5-1-2L1
5-1-2L1          5-1-2            5-1-1            34.000000  0.013000   0.000000   0.000000   0.000000   0.000000  
; 5-1-3L1
5-1-3L1          5-1-3            5-1-2            240.000000 0.013000   0.000000   0.000000   0.000000   0.000000  
; 5-1-4L1
5-1-4L1          5-1-4            5-1-3            289.280000 0.013000   0.000000   0.000000   0.000000   0.000000  
; 5-1-5L1
5-1-5L1          5-1-5            5-1-4            240.000000 0.013000   0.000000   0.000000   0.000000   0.000000  
; 5-1-6L1
5-1-6L1          5-1-6            5-1-5            121.910000 0.013000   0.000000   0.000000   0.000000   0.000000  
; 5-1-7L1
5-1-7L1          5-1-7            5-1-6            226.780000 0.013000   0.000000   0.000000   0.000000   0.000000  
; 5-1-8L1
5-1-8L1          5-1-8            5-1-7            130.280000 0.013000   0.000000   0.000000   0.000000   0.000000  
; 5-1-9L1
5-1-9L1          5-1-9            5-1-8            551.390000 0.013000   0.000000   0.000000   0.000000   0.000000  
; 5-8-1L1
5-8-1L1          5-8-1            5-1-12           259.110000 0.013000   0.000000   0.000000   0.000000   0.000000  

[XSECTIONS]
;;Link           Shape        Geom1            Geom2      Geom3      Geom4      Barrels    Culvert   
;;-------------- ------------ ---------------- ---------- ---------- ---------- ---------- ----------
3-1-1L1          CIRCULAR     1.500000         0.000000   0.000000   0.000000   1          0         
3-2-1L1          CIRCULAR     1.250000         0.000000   0.000000   0.000000   1          0         
3-2-2L1          CIRCULAR     1.250000         0.000000   0.000000   0.000000   1          0         
3-2-3L1          CIRCULAR     1.250000         0.000000   0.000000   0.000000   1          0         
3-2-4L1          CIRCULAR     1.250000         0.000000   0.000000   0.000000   1          0         
3-2-5L1          CIRCULAR     1.250000         0.000000   0.000000   0.000000   1          0         
3-2-6L1          CIRCULAR     1.250000         0.000000   0.000000   0.000000   1          0         
4-1-1L1          CIRCULAR     1.250000         0.000000   0.000000   0.000000   1          0         
4-1-2L1          CIRCULAR     1.250000         0.000000   0.000000   0.000000   1          0         
4-1-3L1          CIRCULAR     1.000000         0.000000   0.000000   0.000000   1          0         
4-1-4L1          CIRCULAR     1.000000         0.000000   0.000000   0.000000   1          0         
4-1-5L1          CIRCULAR     1.000000         0.000000   0.000000   0.000000   1          0         
4-1-6L1          CIRCULAR     1.000000         0.000000   0.000000   0.000000   1          0         
4-1-7L1          CIRCULAR     1.000000         0.000000   0.000000   0.000000   1          0         
4-1-8L1          CIRCULAR     0.833333         0.000000   0.000000   0.000000   1          0         
4-2-1L1          CIRCULAR     0.666667         0.000000   0.000000   0.000000   1          0         
4-2-2L1          CIRCULAR     0.666667         0.000000   0.000000   0.000000   1          0         
4-2-3L1          CIRCULAR     0.666667         0.000000   0.000000   0.000000   1          0         
4-8-1L1          CIRCULAR     0.833333         0.000000   0.000000   0.000000   1          0         
4-8-2L1          CIRCULAR     0.833333         0.000000   0.000000   0.000000   1          0         
5-1-10L1         CIRCULAR     2.000000         0.000000   0.000000   0.000000   1          0         
5-1-11L1         CIRCULAR     1.750000         0.000000   0.000000   0.000000   1          0         
5-1-12L1         CIRCULAR     1.750000         0.000000   0.000000   0.000000   1          0         
5-1-1L1          CIRCULAR     2.000000         0.000000   0.000000   0.000000   1          0         
5-1-2L1          CIRCULAR     2.000000         0.000000   0.000000   0.000000   1          0         
5-1-3L1          CIRCULAR     2.500000         0.000000   0.000000   0.000000   1          0         
5-1-4L1          CIRCULAR     3.000000         0.000000   0.000000   0.000000   1          0         
5-1-5L1          CIRCULAR     2.000000         0.000000   0.000000   0.000000   1          0         
5-1-6L1          CIRCULAR     1.750000         0.000000   0.000000   0.000000   1          0         
5-1-7L1          CIRCULAR     2.000000         0.000000   0.000000   0.000000   1          0         
5-1-8L1          CIRCULAR     2.000000         0.000000   0.000000   0.000000   1          0         
5-1-9L1          CIRCULAR     2.500000         0.000000   0.000000   0.000000   1          0         
5-8-1L1          CIRCULAR     1.750000         0.000000   0.000000   0.000000   1          0         

[LOSSES]
;;Link           Kentry     Kexit      Kavg       Flap Gate  Seepage   
;;-------------- ---------- ---------- ---------- ---------- ----------
3-1-1L1          0.000000   0.000000   0.000000   NO         0.000000  
3-2-1L1          0.000000   0.000000   0.000000   NO         0.000000  
3-2-2L1          0.000000   0.000000   0.000000   NO         0.000000  
3-2-3L1          0.000000   0.000000   0.000000   NO         0.000000  
3-2-4L1          0.000000   0.000000   0.000000   NO         0.000000  
3-2-5L1          0.000000   0.000000   0.000000   NO         0.000000  
3-2-6L1          0.000000   0.000000   0.000000   NO         0.000000  
4-1-1L1          0.000000   0.000000   0.000000   NO         0.000000  
4-1-2L1          0.000000   0.000000   0.000000   NO         0.000000  
4-1-3L1          0.000000   0.000000   0.000000   NO         0.000000  
4-1-4L1          0.000000   0.000000   0.000000   NO         0.000000  
4-1-5L1          0.000000   0.000000   0.000000   NO         0.000000  
4-1-6L1          0.000000   0.000000   0.000000   NO         0.000000  
4-1-7L1          0.000000   0.000000   0.000000   NO         0.000000  
4-1-8L1          0.000000   0.000000   0.000000   NO         0.000000  
4-2-1L1          0.000000   0.000000   0.000000   NO         0.000000  
4-2-2L1          0.000000   0.000000   0.000000   NO         0.000000  
4-2-3L1          0.000000   0.000000   0.000000   NO         0.000000  
4-8-1L1          0.000000   0.000000   0.000000   NO         0.000000  
4-8-2L1          0.000000   0.000000   0.000000   NO         0.000000  
5-1-10L1         0.000000   0.000000   0.000000   NO         0.000000  
5-1-11L1         0.000000   0.000000   0.000000   NO         0.000000  
5-1-12L1         0.000000   0.000000   0.000000   NO         0.000000  
5-1-1L1          0.000000   0.000000   0.000000   NO         0.000000  
5-1-2L1          0.000000   0.000000   0.000000   NO         0.000000  
5-1-3L1          0.000000   0.000000   0.000000   NO         0.000000  
5-1-4L1          0.000000   0.000000   0.000000   NO         0.000000  
5-1-5L1          0.000000   0.000000   0.000000   NO         0.000000  
5-1-6L1          0.000000   0.000000   0.000000   NO         0.000000  
5-1-7L1          0.000000   0.000000   0.000000   NO         0.000000  
5-1-8L1          0.000000   0.000000   0.000000   NO         0.000000  
5-1-9L1          0.000000   0.000000   0.000000   NO         0.000000  
5-8-1L1          0.000000   0.000000   0.000000   NO         0.000000  

[CONTROLS]


[DWF]
;;Node           Constituent      Baseline   Patterns  
;;-------------- ---------------- ---------- ----------
3-1-1            FLOW             2.778000   "" "" ""
3-2-2            FLOW             0.132000   "" "" ""
4-1-4            FLOW             2.725000   "" "" ""
4-1-7            FLOW             0.290000   "" "" ""
4-1-8            FLOW             0.325000   "" "" ""
4-2-3            FLOW             0.081000   "MyHour" "" ""
4-8-2            FLOW             0.12       "MyHour" "" ""
5-1-1            FLOW             7.791000   "" "" ""
5-1-11           FLOW             0.127000   "" "" ""
5-1-12           FLOW             5.877000   "" "" ""

[PATTERNS]
;;Name           Type       Multipliers
;;-------------- ---------- -----------
MyHour           HOURLY     0.600000 0.200000 0.175000 0.200000 0.200000 0.400000
MyHour                      1.000000 1.150000 1.600000 1.800000 1.650000 1.650000
MyHour                      1.550000 1.400000 1.400000 1.450000 1.600000 1.500000
MyHour                      1.200000 1.100000 0.600000 0.500000 0.500000 0.600000

[REPORT]
;;Reporting Options
INPUT      NO
CONTROLS   NO
SUBCATCHMENTS ALL
NODES ALL
LINKS ALL

[TAGS]

[MAP]
DIMENSIONS 1151637.788 96317.616 1154083.400 101895.584
Units      None

[COORDINATES]
;;Node           X-Coord            Y-Coord           
;;-------------- ------------------ ------------------
3-1-1            1151748.952        98681.879         
3-2-1            1152013.130        98829.800         
3-2-2            1152272.500        99053.490         
3-2-3            1152348.880        99150.610         
3-2-4            1152569.500        99271.590         
3-2-5            1152681.250        99221.570         
3-2-6            1152892.750        99298.300         
4-1-1            1152893.131        99456.535         
4-1-2            1152900.000        99710.210         
4-1-3            1152916.781        100131.476        
4-1-4            1152909.380        100469.480        
4-1-5            1152620.000        100476.580        
4-1-6            1152549.500        100478.150        
4-1-7            1152549.130        100566.950        
4-1-8            1152559.380        101035.680        
4-2-1            1153156.380        99706.600         
4-2-2            1153163.596        100133.578        
4-2-3            1153158.750        100465.710        
4-8-1            1152571.321        101469.973        
4-8-2            1152577.750        101642.040        
5-1-1            1153903.130        97037.490         
5-1-10           1152440.878        97640.784         
5-1-11           1152290.877        97869.089         
5-1-12           1152137.130        98093.880         
5-1-2            1153870.000        97046.390         
5-1-3            1153649.516        96884.153         
5-1-4            1153417.129        96711.178         
5-1-5            1153221.880        96571.160         
5-1-6            1153117.050        96716.200         
5-1-7            1153000.133        96878.131         
5-1-8            1152921.250        97004.570         
5-1-9            1152579.427        97437.888         
5-8-1            1151988.380        98306.040         
MAIN_LS          1153972.236        96913.920         

[VERTICES]
;;Link           X-Coord            Y-Coord           
;;-------------- ------------------ ------------------

