[OPTIONS]
;Option and Files Scenario Set: BASE
FLOW_UNITS	GPM
INFILTRATION	HORTON
FLOW_ROUTING	DYNWAVE
ALLOW_PONDING	NO
DRY_DAYS	5.000000
SKIP_STEADY_STATE 	NO
IGNORE_RAINFALL	NO
IGNORE_SNOWMELT	NO
IGNORE_GROUNDWATER	NO
IGNORE_QUALITY	NO
FORCE_MAIN_EQUATION	H-W
LINK_OFFSETS	DEPTH
MIN_SLOPE	0.000000
START_DATE	01/01/2002
START_TIME	00:00:00
END_DATE	01/01/2002
END_TIME	24:00:00
REPORT_START_DATE	01/01/2002
REPORT_START_TIME	00:00
SWEEP_START	01/01
SWEEP_END	12/31
WET_STEP	01:00:00
DRY_STEP	23:00:00
ROUTING_STEP	300
REPORT_STEP	00:05:00
INERTIAL_DAMPING	NONE
VARIABLE_STEP	0.750000
MINIMUM_STEP	0.5
LENGTHENING_STEP	0
MIN_SURFAREA	0.000000
NORMAL_FLOW_LIMITED	BOTH

[FILES]

[RAINGAGES]

[HYDROGRAPHS]

[TEMPERATURE]

[ADJUSTMENTS]

[SUBCATCHMENTS]

[SUBAREAS]

[INFILTRATION]

[AQUIFERS]

[GROUNDWATER]

[GWF]

[SNOWPACKS]

[JUNCTIONS]
; CT01-A00
1	5930.053789	7.330000	0.000000	0.000000	0.000000
; CT01-A09
10	5955.550293	8.000000	0.000000	0.000000	0.000000
; CT02-A06
100	5908.436934	5.170000	0.000000	0.000000	0.000000
; Chamber
10000	0.000000	0.000000	0.000000	0.000000	0.000000
; Chamber
10002	0.000000	0.000000	0.000000	0.000000	0.000000
; Chamber
10006	0.000000	0.000000	0.000000	0.000000	0.000000
; Chamber
10008	0.000000	0.000000	0.000000	0.000000	0.000000
; Chamber
10010	0.000000	0.000000	0.000000	0.000000	0.000000
; Chamber
10012	0.000000	0.000000	0.000000	0.000000	0.000000
; Chamber
10014	0.000000	0.000000	0.000000	0.000000	0.000000
; Chamber
10016	0.000000	0.000000	0.000000	0.000000	0.000000
; Chamber
10018	0.000000	0.000000	0.000000	0.000000	0.000000
; Chamber
10020	0.000000	0.000000	0.000000	0.000000	0.000000
; Chamber
10022	0.000000	0.000000	0.000000	0.000000	0.000000
; Chamber
10024	0.000000	0.000000	0.000000	0.000000	0.000000
; Chamber
10026	0.000000	0.000000	0.000000	0.000000	0.000000
; Chamber
10028	0.000000	0.000000	0.000000	0.000000	0.000000
; Chamber
10030	0.100000	6999.900000	0.000000	1000.000000	0.000000
; Chamber
10032	0.000000	0.000000	0.000000	0.000000	0.000000
; Chamber
10034	0.100000	6999.900000	0.000000	1000.000000	0.000000
; Chamber
10036	0.100000	6999.900000	0.000000	1000.000000	0.000000
; Chamber
10038	0.100000	6999.900000	0.000000	1000.000000	0.000000
; Chamber
10040	5963.247051	1036.752949	0.000000	1000.000000	0.000000
; Chamber
10042	0.100000	6999.900000	0.000000	1000.000000	0.000000
; Chamber
10044	0.100000	6999.900000	0.000000	1000.000000	0.000000
; Chamber
10046	0.100000	6999.900000	0.000000	1000.000000	0.000000
; Chamber
10048	0.000000	0.000000	0.000000	0.000000	0.000000
; CT02-A07
101	5913.801758	5.000000	0.000000	0.000000	0.000000
; CT02-A08
102	5918.288008	4.670000	0.000000	0.000000	0.000000
; CT02-A09
103	5922.922363	5.000000	0.000000	0.000000	0.000000
; CT02-B01
104	5896.227461	8.170000	0.000000	0.000000	0.000000
; CT02-B02
105	5899.264727	5.580000	0.000000	0.000000	0.000000
; CT02-B03
106	5902.960527	5.830000	0.000000	0.000000	0.000000
; CT02-B03A
107	5904.589844	5.000000	0.000000	0.000000	0.000000
; CT02-B04
108	5906.090898	4.330000	0.000000	0.000000	0.000000
; CT02-B05
109	5906.926191	7.170000	0.000000	0.000000	0.000000
; CT01-A10
11	5955.603105	5.830000	0.000000	0.000000	0.000000
; CT02-B06
110	5907.249922	7.170000	0.000000	0.000000	0.000000
; CT02-B07
111	5908.527422	9.830000	0.000000	0.000000	0.000000
; CT02-B08
112	5926.090254	4.170000	0.000000	0.000000	0.000000
; CT02-B09
113	5957.133789	4.500000	0.000000	0.000000	0.000000
; CT02-B10
114	6021.555098	11.170000	0.000000	0.000000	0.000000
; CT02-B10A
115	6044.170410	6.000000	0.000000	0.000000	0.000000
; CT02-B11
116	6048.352539	18.500000	0.000000	0.000000	0.000000
; CT02-B12
117	6063.240801	4.330000	0.000000	0.000000	0.000000
; CT02-B13
118	6080.328047	3.420000	0.000000	0.000000	0.000000
; CT02-B14
119	6117.976973	4.170000	0.000000	0.000000	0.000000
; CT01-A11
12	5973.599609	4.500000	0.000000	0.000000	0.000000
; CT02-B15
120	6126.724199	6.830000	0.000000	0.000000	0.000000
; CT02-B16
121	6155.633789	5.750000	0.000000	0.000000	0.000000
; CT02-B17
122	6156.430586	7.420000	0.000000	0.000000	0.000000
; CT02-B18
123	6164.845215	6.000000	0.000000	0.000000	0.000000
; CT02-B19
124	6180.642656	6.330000	0.000000	0.000000	0.000000
; CT02-B20
125	6205.892656	4.830000	0.000000	0.000000	0.000000
; CT02-B21
126	6225.118066	9.150000	0.000000	0.000000	0.000000
; CT02-C01
127	5899.462480	7.330000	0.000000	0.000000	0.000000
; CT02-C02
128	5907.678711	6.000000	0.000000	0.000000	0.000000
; CT02-C03
129	5925.049805	6.500000	0.000000	0.000000	0.000000
; CT01-A12
13	5985.222734	3.580000	0.000000	0.000000	0.000000
; CT02-C04
130	5944.347168	4.500000	0.000000	0.000000	0.000000
; CT02-C05
131	5965.612383	6.330000	0.000000	0.000000	0.000000
; CT02-C06
132	6000.026855	4.750000	0.000000	0.000000	0.000000
; CT02-C07
133	6007.462813	4.420000	0.000000	0.000000	0.000000
; CT02-C08
134	6012.872637	3.330000	0.000000	0.000000	0.000000
; CT02-C09
135	6031.184492	4.420000	0.000000	0.000000	0.000000
; CT02-C10
136	6035.952148	3.750000	0.000000	0.000000	0.000000
; CT02-C11
137	6045.910645	4.000000	0.000000	0.000000	0.000000
; CT02-C11A
138	6078.881758	4.420000	0.000000	0.000000	0.000000
; CT02-C12
139	6093.255859	4.500000	0.000000	0.000000	0.000000
; CT01-A13
14	6008.048340	3.500000	0.000000	0.000000	0.000000
; CT02-C13
140	6095.553711	6.000000	0.000000	0.000000	0.000000
; CT02-C14
141	6112.916426	3.670000	0.000000	0.000000	0.000000
; CT02-C15
142	6114.788086	8.500000	0.000000	0.000000	0.000000
; CT02-C16
143	6109.671875	4.500000	0.000000	0.000000	0.000000
; CT02-C17
144	6124.581543	12.500000	0.000000	0.000000	0.000000
; CT02-C18
145	6138.466211	-0.100000	0.000000	0.000000	0.000000
; CT02-D01
146	5916.065332	-0.100000	0.000000	0.000000	0.000000
; CT02-E01
147	5900.492676	4.000000	0.000000	0.000000	0.000000
; CT02-E02
148	5905.447168	-0.100000	0.000000	0.000000	0.000000
; CT02-F01
149	5937.586816	-0.100000	0.000000	0.000000	0.000000
; CT01-A14
15	6023.424316	3.250000	0.000000	0.000000	0.000000
; CT02-G01
150	5933.853906	-0.100000	0.000000	0.000000	0.000000
; CT02-H01
151	5959.332520	4.000000	0.000000	0.000000	0.000000
; CT02-H02
152	5974.953027	-0.100000	0.000000	0.000000	0.000000
; CT02-I01
153	5972.880938	4.330000	0.000000	0.000000	0.000000
; CT02-I02
154	5996.090234	-0.100000	0.000000	0.000000	0.000000
; CT02-J01
155	6020.864160	7.400000	0.000000	0.000000	0.000000
; CT02-K01
156	5910.485918	8.330000	0.000000	0.000000	0.000000
; CT02-K02
157	5920.862715	8.920000	0.000000	0.000000	0.000000
; CT02-K03
158	5944.504961	8.330000	0.000000	0.000000	0.000000
; CT02-K04
159	5960.704004	-0.100000	0.000000	0.000000	0.000000
; CT01-A15
16	6045.590332	3.500000	0.000000	0.000000	0.000000
; CT02-L01
160	5973.451563	-0.100000	0.000000	0.000000	0.000000
; CT02-M01
161	5999.468340	7.330000	0.000000	0.000000	0.000000
; CT02-M02
162	6006.246582	3.750000	0.000000	0.000000	0.000000
; CT02-M03
163	6018.565332	-0.100000	0.000000	0.000000	0.000000
; CT02-N01
164	6155.143945	-0.100000	0.000000	0.000000	0.000000
; CT02-O01
165	6185.017480	-0.100000	0.000000	0.000000	0.000000
; CT02-P01
166	6056.817285	-0.100000	0.000000	0.000000	0.000000
; CT03-A01
167	5875.328691	6.330000	0.000000	0.000000	0.000000
; CT03-A02
168	5868.365801	10.330000	0.000000	0.000000	0.000000
; CT03-A03
169	5872.903398	6.830000	0.000000	0.000000	0.000000
; CT01-A16
17	6058.047285	4.920000	0.000000	0.000000	0.000000
; CT03-A04
170	5873.680742	6.330000	0.000000	0.000000	0.000000
; CT03-A05
171	5875.631914	6.330000	0.000000	0.000000	0.000000
; CT03-A06
172	5882.386230	3.000000	0.000000	0.000000	0.000000
; CT03-A07
173	5878.900313	11.670000	0.000000	0.000000	0.000000
; CT03-A08
174	5886.798340	10.000000	0.000000	0.000000	0.000000
; CT03-A09
175	5895.542070	5.830000	0.000000	0.000000	0.000000
; CT03-A10
176	5900.292969	8.000000	0.000000	0.000000	0.000000
; DL01-A01
1760	5970.458906	4.670000	0.000000	0.000000	0.000000
; DL01-A02
1761	5979.603027	5.500000	0.000000	0.000000	0.000000
; DL01-A03
1762	5990.063965	6.250000	0.000000	0.000000	0.000000
; DL01-A04
1763	5995.490156	13.920000	0.000000	0.000000	0.000000
; DL01-A05
1764	5994.896074	6.830000	0.000000	0.000000	0.000000
; DL01-A06
1765	5997.650469	6.580000	0.000000	0.000000	0.000000
; DL01-A07
1766	5998.751387	6.170000	0.000000	0.000000	0.000000
; DL01-A08
1767	5999.695313	7.000000	0.000000	0.000000	0.000000
; DL01-A09
1768	6015.371992	10.920000	0.000000	0.000000	0.000000
; DL01-A10
1769	6015.948730	7.250000	0.000000	0.000000	0.000000
; CT03-A11
177	5910.900801	5.670000	0.000000	0.000000	0.000000
; DL01-A11
1770	6040.580488	5.670000	0.000000	0.000000	0.000000
; DL01-A12
1771	6052.089277	5.420000	0.000000	0.000000	0.000000
; DL01-A13
1772	6069.447246	5.480000	0.000000	0.000000	0.000000
; DL01-B01
1773	6004.949219	3.500000	0.000000	0.000000	0.000000
; DL01-B02
1774	6032.976563	4.000000	0.000000	0.000000	0.000000
; DL01-B03
1775	6053.568848	4.000000	0.000000	0.000000	0.000000
; DL01-B04
1776	6075.497480	4.920000	0.000000	0.000000	0.000000
; DL01-B05
1777	6109.568359	4.000000	0.000000	0.000000	0.000000
; DL01-B06
1778	6118.642656	3.330000	0.000000	0.000000	0.000000
; DL01-B07
1779	6134.864160	-0.100000	0.000000	0.000000	0.000000
; CT03-A12
178	5927.561445	5.170000	0.000000	0.000000	0.000000
; DL01-BP01
1780	0.000000	0.000000	0.000000	1000.000000	0.000000
; DL01-BP02
1781	0.000000	0.000000	0.000000	1000.000000	0.000000
; DL01-BP03
1782	0.000000	0.000000	0.000000	1000.000000	0.000000
; DL01-BP04
1783	0.000000	0.000000	0.000000	1000.000000	0.000000
; DL01-BP05
1784	0.000000	0.000000	0.000000	1000.000000	0.000000
; DL01-C01
1785	6054.377832	-0.100000	0.000000	0.000000	0.000000
; DL01-D01
1786	6022.194258	3.670000	0.000000	0.000000	0.000000
; DL01-D02
1787	6049.876855	-0.100000	0.000000	0.000000	0.000000
; DL01-E01
1788	5965.758867	12.080000	0.000000	0.000000	0.000000
; DL01-E02
1789	5966.271406	10.170000	0.000000	0.000000	0.000000
; CT03-B01
179	5882.190508	5.580000	0.000000	0.000000	0.000000
; DL01-E03
1790	5966.209961	7.000000	0.000000	0.000000	0.000000
; DL01-E04
1791	5968.530762	4.500000	0.000000	0.000000	0.000000
; DL01-E05
1792	5967.889160	4.000000	0.000000	0.000000	0.000000
; DL01-E06
1793	5976.071699	9.420000	0.000000	0.000000	0.000000
; DL01-E07
1794	5976.963379	14.000000	0.000000	0.000000	0.000000
; DL01-E08
1795	5978.669922	9.500000	0.000000	0.000000	0.000000
; DL01-E09
1796	5978.594727	7.000000	0.000000	0.000000	0.000000
; DL01-E10
1797	5982.878906	7.500000	0.000000	0.000000	0.000000
; DL01-E11
1798	5987.942871	6.750000	0.000000	0.000000	0.000000
; DL01-E12
1799	5988.595625	7.420000	0.000000	0.000000	0.000000
; CT01-A17
18	6070.668457	3.500000	0.000000	0.000000	0.000000
; CT03-B02
180	5889.631836	7.000000	0.000000	0.000000	0.000000
; DL01-E13
1800	5996.028223	-0.100000	0.000000	0.000000	0.000000
; DL01-F01
1801	6003.563066	4.080000	0.000000	0.000000	0.000000
; DL01-F02
1802	6008.269043	4.000000	0.000000	0.000000	0.000000
; DL01-F03
1803	6045.082031	7.500000	0.000000	0.000000	0.000000
; DL01-F04
1804	6086.310449	-0.100000	0.000000	0.000000	0.000000
; DL01-G01
1805	6049.550371	4.080000	0.000000	0.000000	0.000000
; DL01-G02
1806	6048.188066	3.330000	0.000000	0.000000	0.000000
; DL01-G03
1807	6062.507715	-0.100000	0.000000	0.000000	0.000000
; DL01-H01
1808	6031.197656	-0.100000	0.000000	0.000000	0.000000
; DL01-I01
1809	6022.032715	4.000000	0.000000	0.000000	0.000000
; CT03-B03
181	5888.281250	9.000000	0.000000	0.000000	0.000000
; DL01-I02
1810	6030.338770	-0.100000	0.000000	0.000000	0.000000
; DL02-A01
1811	5971.069414	11.330000	0.000000	0.000000	0.000000
; DL02-A02
1812	5969.405273	6.000000	0.000000	0.000000	0.000000
; DL02-A03
1813	5967.869551	10.420000	0.000000	0.000000	0.000000
; DL02-A04
1814	5973.733398	5.750000	0.000000	0.000000	0.000000
; DL02-A06
1816	5976.785645	5.000000	0.000000	0.000000	0.000000
; DL02-A07
1817	5989.575684	4.750000	0.000000	0.000000	0.000000
; DL02-B01
1819	5954.723555	5.170000	0.000000	0.000000	0.000000
; CT03-B04
182	5891.890059	7.170000	0.000000	0.000000	0.000000
; DL02-B02
1820	5957.779863	3.330000	0.000000	0.000000	0.000000
; DL02-B03
1821	5965.142969	-0.100000	0.000000	0.000000	0.000000
; DL02-C01
1822	5967.694727	-0.100000	0.000000	0.000000	0.000000
; DL03-A01
1824	5929.944336	14.000000	0.000000	0.000000	0.000000
; DL03-A02
1825	5930.199785	10.330000	0.000000	0.000000	0.000000
; DL03-A03
1826	5932.181152	10.000000	0.000000	0.000000	0.000000
; DL03-A04
1827	5934.600586	9.500000	0.000000	0.000000	0.000000
; DL03-A05
1828	5935.543047	6.830000	0.000000	0.000000	0.000000
; DL03-A06
1829	5936.939043	6.330000	0.000000	0.000000	0.000000
; CT03-B05
183	5900.486719	-0.100000	0.000000	0.000000	0.000000
; DL03-A07
1830	5938.529375	5.330000	0.000000	0.000000	0.000000
; DL03-A08
1831	5938.364336	5.580000	0.000000	0.000000	0.000000
; DL03-A09
1832	5940.121016	7.920000	0.000000	0.000000	0.000000
; DL03-A10
1833	5946.090332	4.000000	0.000000	0.000000	0.000000
; DL03-A11
1834	5957.307051	7.170000	0.000000	0.000000	0.000000
; DL03-A12
1835	5967.801680	9.670000	0.000000	0.000000	0.000000
; DL03-B01
1836	5935.823711	6.730000	0.000000	0.000000	0.000000
; DL03-C01
1837	5935.715820	8.500000	0.000000	0.000000	0.000000
; DL03-C02
1838	5939.356035	9.330000	0.000000	0.000000	0.000000
; DL03-C03
1839	5937.892012	7.420000	0.000000	0.000000	0.000000
; CT03-C01
184	5890.845703	5.000000	0.000000	0.000000	0.000000
; DL03-C04
1840	5937.557617	7.500000	0.000000	0.000000	0.000000
; DL03-C05
1841	5938.543535	10.330000	0.000000	0.000000	0.000000
; DL03-C06
1842	5942.615313	5.080000	0.000000	0.000000	0.000000
; DL03-C07
1843	5944.308027	4.920000	0.000000	0.000000	0.000000
; DL03-C08
1844	5945.418535	5.830000	0.000000	0.000000	0.000000
; DL03-C09
1845	5946.735352	5.500000	0.000000	0.000000	0.000000
; DL03-C10
1846	5947.489668	8.420000	0.000000	0.000000	0.000000
; DL03-C11
1847	5948.880781	7.170000	0.000000	0.000000	0.000000
; DL03-C12
1848	5952.756348	5.000000	0.000000	0.000000	0.000000
; DL03-C13
1849	5957.805254	4.580000	0.000000	0.000000	0.000000
; CT03-C02
185	5891.973047	3.650000	0.000000	0.000000	0.000000
; DL03-C14
1850	5962.159258	4.330000	0.000000	0.000000	0.000000
; DL03-C15
1851	5966.392090	4.000000	0.000000	0.000000	0.000000
; DL03-C16
1852	5976.673750	4.920000	0.000000	0.000000	0.000000
; DL03-C17
1853	5989.340234	-0.100000	0.000000	0.000000	0.000000
; DL03-D01
1854	5938.401348	7.480000	0.000000	0.000000	0.000000
; DL03-E01
1855	5946.092852	5.330000	0.000000	0.000000	0.000000
; DL03-E02
1856	5946.857910	6.000000	0.000000	0.000000	0.000000
; DL03-E03
1857	5953.878809	-0.100000	0.000000	0.000000	0.000000
; DL03-F01
1858	5947.634199	4.670000	0.000000	0.000000	0.000000
; DL03-F02
1859	5955.305566	-0.100000	0.000000	0.000000	0.000000
; CT03-D01
186	5895.516113	5.250000	0.000000	0.000000	0.000000
; DL03-G01
1860	5950.420410	6.000000	0.000000	0.000000	0.000000
; DL03-G02
1861	5950.517500	7.420000	0.000000	0.000000	0.000000
; DL03-G04
1862	5953.837891	6.000000	0.000000	0.000000	0.000000
; DL03-G05
1863	5960.542070	5.330000	0.000000	0.000000	0.000000
; DL03-G06
1864	5970.375410	6.420000	0.000000	0.000000	0.000000
; DL03-G07
1865	5985.278223	-0.100000	0.000000	0.000000	0.000000
; DL03-H01
1866	5956.798828	9.750000	0.000000	0.000000	0.000000
; DL03-H02
1867	5968.380762	-0.100000	0.000000	0.000000	0.000000
; DL03-I01
1868	5960.182129	6.250000	0.000000	0.000000	0.000000
; DL03-I02
1869	5967.703125	7.000000	0.000000	0.000000	0.000000
; DL03-I03
1870	5979.336816	-0.100000	0.000000	0.000000	0.000000
; DL03-J01
1871	5939.337813	5.670000	0.000000	0.000000	0.000000
; DL03-J02
1872	5940.001953	5.750000	0.000000	0.000000	0.000000
; DL03-J03
1873	5948.224512	-0.100000	0.000000	0.000000	0.000000
; DL03-K01
1874	5945.813379	-0.100000	0.000000	0.000000	0.000000
; DL03-L01
1875	5938.275879	6.000000	0.000000	0.000000	0.000000
; DL03-L02
1876	5939.409668	6.250000	0.000000	0.000000	0.000000
; DL03-L03
1877	5941.550703	5.420000	0.000000	0.000000	0.000000
; DL03-L04
1878	5942.573320	5.580000	0.000000	0.000000	0.000000
; DL03-L05
1879	5949.878809	-0.100000	0.000000	0.000000	0.000000
; DL03-M01
1880	5947.081934	-0.100000	0.000000	0.000000	0.000000
; DL03-N01
1881	5937.747969	5.670000	0.000000	0.000000	0.000000
; DL03-N02
1882	5937.721758	7.830000	0.000000	0.000000	0.000000
; DL03-N03
1883	5943.219805	8.330000	0.000000	0.000000	0.000000
; DL03-N04
1884	5946.502441	5.000000	0.000000	0.000000	0.000000
; DL03-N05
1885	5954.935469	5.170000	0.000000	0.000000	0.000000
; DL03-N06
1886	5982.435449	-0.100000	0.000000	0.000000	0.000000
; DL03-O01
1887	5939.631270	5.920000	0.000000	0.000000	0.000000
; DL03-O02
1888	5941.662109	5.000000	0.000000	0.000000	0.000000
; DL03-O03
1889	5947.324121	-0.100000	0.000000	0.000000	0.000000
; DL03-P01
1890	5938.812012	7.750000	0.000000	0.000000	0.000000
; DL03-P02
1891	5941.442461	8.330000	0.000000	0.000000	0.000000
; DL03-P03
1892	5941.062422	8.170000	0.000000	0.000000	0.000000
; DL03-P04
1893	5942.625078	7.830000	0.000000	0.000000	0.000000
; DL03-P04A
1894	5942.442305	8.170000	0.000000	0.000000	0.000000
; DL03-P05
1895	5943.703125	6.250000	0.000000	0.000000	0.000000
; DL03-P06
1896	5950.444727	-0.100000	0.000000	0.000000	0.000000
; DL03-Q01
1897	5944.648848	7.920000	0.000000	0.000000	0.000000
; DL03-Q02
1898	5951.507227	-0.100000	0.000000	0.000000	0.000000
; DL03-R01
1899	5941.330977	4.670000	0.000000	0.000000	0.000000
; CT01-A18
19	6081.597168	4.500000	0.000000	0.000000	0.000000
; CT03-D05
190	5897.319160	4.320000	0.000000	0.000000	0.000000
; DL03-R02
1900	5950.841211	-0.100000	0.000000	0.000000	0.000000
; DL03-S01
1901	5946.813887	4.670000	0.000000	0.000000	0.000000
; DL03-S02
1902	5954.980371	-0.100000	0.000000	0.000000	0.000000
; DL03-T01
1903	5948.594160	6.420000	0.000000	0.000000	0.000000
; DL03-T02
1904	5967.802148	-0.100000	0.000000	0.000000	0.000000
; DL03-U01
1905	5967.353418	-0.100000	0.000000	0.000000	0.000000
; DL03-V01
1906	5992.128320	-0.100000	0.000000	0.000000	0.000000
; DL04-A01
1907	5932.624434	8.420000	0.000000	0.000000	0.000000
; DL04-A02
1908	5933.678711	8.000000	0.000000	0.000000	0.000000
; DL04-A03
1909	5936.881426	9.330000	0.000000	0.000000	0.000000
; DL04-A04
1910	5937.736895	8.330000	0.000000	0.000000	0.000000
; DL04-A05
1912	5938.530273	7.750000	0.000000	0.000000	0.000000
; DL04-A06
1913	5938.659102	8.420000	0.000000	0.000000	0.000000
; DL04-A07
1914	5939.763262	9.830000	0.000000	0.000000	0.000000
; DL04-B01
1915	5951.003496	4.080000	0.000000	0.000000	0.000000
; DL04-B02
1916	5968.473633	3.500000	0.000000	0.000000	0.000000
; DL04-B03
1917	5978.730879	7.670000	0.000000	0.000000	0.000000
; DL04-B04
1918	6000.935059	5.750000	0.000000	0.000000	0.000000
; DL04-B05
1919	6011.043535	5.080000	0.000000	0.000000	0.000000
; CT03-E01
192	5919.715820	8.000000	0.000000	0.000000	0.000000
; DL04-B06
1920	6012.939863	7.670000	0.000000	0.000000	0.000000
; DL04-B07
1921	6030.117266	4.580000	0.000000	0.000000	0.000000
; DL04-B08
1922	6032.184004	9.170000	0.000000	0.000000	0.000000
; DL04-B09
1923	6033.706543	16.000000	0.000000	0.000000	0.000000
; DL04-B10
1924	6059.239336	6.330000	0.000000	0.000000	0.000000
; DL04-B11
1925	6085.511719	6.750000	0.000000	0.000000	0.000000
; DL04-B12
1927	6098.776855	6.500000	0.000000	0.000000	0.000000
; DL04-B13
1928	6117.149824	7.420000	0.000000	0.000000	0.000000
; DL04-BP01
1929	0.000000	0.000000	0.000000	1000.000000	0.000000
; CT03-E02
193	5923.157715	6.500000	0.000000	0.000000	0.000000
; DL04-BP02
1930	0.000000	0.000000	0.000000	1000.000000	0.000000
; DL04-BP03
1931	0.000000	0.000000	0.000000	1000.000000	0.000000
; DL04-BP04
1932	0.000000	0.000000	0.000000	1000.000000	0.000000
; DL04-BP05
1933	0.000000	0.000000	0.000000	1000.000000	0.000000
; DL04-BP06
1934	0.000000	0.000000	0.000000	1000.000000	0.000000
; DL04-C01
1935	6020.836836	7.670000	0.000000	0.000000	0.000000
; DL04-C03
1936	6048.424707	-0.100000	0.000000	0.000000	0.000000
; DL04-D01
1937	6050.324121	-0.100000	0.000000	0.000000	0.000000
; DL04-E01
1938	6034.148438	10.000000	0.000000	0.000000	0.000000
; DL04-E02
1939	6037.008301	6.000000	0.000000	0.000000	0.000000
; CT03-E03
194	5933.623926	-0.100000	0.000000	0.000000	0.000000
; DL04-E03
1940	6042.978418	-0.100000	0.000000	0.000000	0.000000
; DL04-F01
1941	6107.480957	0.000000	0.000000	0.000000	0.000000
; DL04-F02
1942	6114.066797	-0.100000	0.000000	0.000000	0.000000
; DL04-G01
1943	6139.399316	-0.100000	0.000000	0.000000	0.000000
; DL04-H01
1944	6131.548730	-0.100000	0.000000	0.000000	0.000000
; DL04-I01
1945	5939.701660	5.000000	0.000000	0.000000	0.000000
; DL04-I02
1946	5940.046309	6.170000	0.000000	0.000000	0.000000
; DL04-I03
1947	5945.352441	-0.100000	0.000000	0.000000	0.000000
; DL04-J01
1948	5948.013086	-0.100000	0.000000	0.000000	0.000000
; DL04-K01
1949	5936.252520	9.580000	0.000000	0.000000	0.000000
; DL04-K02
1950	5936.655684	9.420000	0.000000	0.000000	0.000000
; DL04-K03
1951	5937.646406	9.170000	0.000000	0.000000	0.000000
; DL04-K04
1952	5943.616211	7.000000	0.000000	0.000000	0.000000
; DL04-K05
1953	5944.574785	6.830000	0.000000	0.000000	0.000000
; DL04-K06
1954	5946.511230	7.000000	0.000000	0.000000	0.000000
; DL04-K07
1955	5955.233320	3.670000	0.000000	0.000000	0.000000
; DL04-K08
1956	5965.235254	-0.100000	0.000000	0.000000	0.000000
; DL04-L01
1957	5948.098535	-0.100000	0.000000	0.000000	0.000000
; DL04-M01
1958	5937.771973	6.500000	0.000000	0.000000	0.000000
; DL04-M02
1959	5938.352461	5.170000	0.000000	0.000000	0.000000
; DL04-M04
1960	5940.002852	4.670000	0.000000	0.000000	0.000000
; DL04-M05
1961	5944.582930	5.170000	0.000000	0.000000	0.000000
; DL04-M06
1962	5948.975664	3.330000	0.000000	0.000000	0.000000
; DL04-M07
1963	5950.452637	4.250000	0.000000	0.000000	0.000000
; DL04-M08
1964	5949.816973	7.080000	0.000000	0.000000	0.000000
; DL04-M09
1965	5949.848145	5.750000	0.000000	0.000000	0.000000
; DL04-M10
1966	5948.973633	11.750000	0.000000	0.000000	0.000000
; DL04-M11
1967	5956.894531	9.500000	0.000000	0.000000	0.000000
; DL04-M12
1968	5966.514570	4.420000	0.000000	0.000000	0.000000
; DL04-M13
1969	5970.207598	5.330000	0.000000	0.000000	0.000000
; CT04-A02
197	5881.095215	9.000000	0.000000	0.000000	0.000000
; DL04-M14
1970	5977.797754	6.900000	0.000000	0.000000	0.000000
; DL04-N01
1971	5952.025293	-0.100000	0.000000	0.000000	0.000000
; DL04-R01
1975	5944.948633	-0.100000	0.000000	0.000000	0.000000
; DL04-S01
1976	6036.296465	4.580000	0.000000	0.000000	0.000000
; DL04-S02
1977	6058.690020	6.080000	0.000000	0.000000	0.000000
; DL04-S03
1978	6070.770430	9.170000	0.000000	0.000000	0.000000
; DL04-S04
1979	6073.244629	11.750000	0.000000	0.000000	0.000000
; CT04-A03
198	5882.529785	7.000000	0.000000	0.000000	0.000000
; DL04-S05
1980	6073.350586	4.750000	0.000000	0.000000	0.000000
; DL04-S06
1981	6074.064941	4.750000	0.000000	0.000000	0.000000
; DL04-S07
1982	6073.977539	5.000000	0.000000	0.000000	0.000000
; DL04-S08
1983	6073.440332	9.650000	0.000000	0.000000	0.000000
; DL04-T01
1984	5960.872148	4.580000	0.000000	0.000000	0.000000
; DL04-T02
1985	5984.527422	5.830000	0.000000	0.000000	0.000000
; DL04-T03
1986	6008.568281	11.670000	0.000000	0.000000	0.000000
; DL04-T04
1987	6009.313965	7.250000	0.000000	0.000000	0.000000
; DL04-T05
1988	6006.257734	7.170000	0.000000	0.000000	0.000000
; DL04-T06
1989	6010.208398	-0.100000	0.000000	0.000000	0.000000
; CT04-A04
199	5884.202637	6.000000	0.000000	0.000000	0.000000
; DL04-U01
1990	5955.345605	4.400000	0.000000	0.000000	0.000000
; DL04-V01
1991	5982.918359	2.900000	0.000000	0.000000	0.000000
; DL05-A01
1993	5934.877031	11.830000	0.000000	0.000000	0.000000
; DL05-A02
1994	5940.300215	5.920000	0.000000	0.000000	0.000000
; DL05-A03
1995	5942.592773	7.000000	0.000000	0.000000	0.000000
; DL05-A04
1996	5948.542070	6.080000	0.000000	0.000000	0.000000
; DL05-A05
1997	5952.086426	6.500000	0.000000	0.000000	0.000000
; DL05-A06
1998	5945.462480	6.580000	0.000000	0.000000	0.000000
; DL05-A07
1999	5946.563398	6.670000	0.000000	0.000000	0.000000
; CT01-A01
2	5935.888750	7.080000	0.000000	0.000000	0.000000
; CT01-A19
20	6091.854492	3.750000	0.000000	0.000000	0.000000
; CT04-A05
200	5883.400879	6.000000	0.000000	0.000000	0.000000
; DL05-A08
2000	5959.275781	-0.100000	0.000000	0.000000	0.000000
; DL05-B01
2001	5980.618730	7.080000	0.000000	0.000000	0.000000
; DL05-B02
2002	5986.159590	3.920000	0.000000	0.000000	0.000000
; DL05-B03
2003	5989.110840	2.250000	0.000000	0.000000	0.000000
; DL05-BP01
2004	0.000000	0.000000	0.000000	1000.000000	0.000000
; DL05-BP02
2005	0.000000	0.000000	0.000000	1000.000000	0.000000
; DL05-BP03
2006	0.000000	0.000000	0.000000	1000.000000	0.000000
; DL05-BP04
2007	0.000000	0.000000	0.000000	1000.000000	0.000000
; DL05-BP05
2008	0.000000	0.000000	0.000000	1000.000000	0.000000
; DL05-C01
2009	5986.146563	6.080000	0.000000	0.000000	0.000000
; DL05-C02
2010	5993.868555	-0.100000	0.000000	0.000000	0.000000
; DL05-D01
2011	6007.597090	4.420000	0.000000	0.000000	0.000000
; DL05-D02
2012	6025.211816	-0.100000	0.000000	0.000000	0.000000
; DL05-E01
2013	5935.861406	11.330000	0.000000	0.000000	0.000000
; DL05-E02
2014	5935.739746	11.000000	0.000000	0.000000	0.000000
; DL05-E03
2015	5939.077148	10.250000	0.000000	0.000000	0.000000
; DL05-E04
2016	5940.045977	8.330000	0.000000	0.000000	0.000000
; DL05-E05
2017	5938.677656	6.920000	0.000000	0.000000	0.000000
; DL05-E06
2018	5940.042559	7.330000	0.000000	0.000000	0.000000
; DL05-E07
2019	5939.923906	8.580000	0.000000	0.000000	0.000000
; CT04-A07
202	5886.857910	8.000000	0.000000	0.000000	0.000000
; DL05-E08
2020	5941.164063	8.500000	0.000000	0.000000	0.000000
; DL05-E09
2021	5941.868652	9.250000	0.000000	0.000000	0.000000
; DL05-E10
2022	5943.266113	9.000000	0.000000	0.000000	0.000000
; DL05-E11
2023	5942.545410	7.500000	0.000000	0.000000	0.000000
; DL05-F01
2024	5953.872637	4.830000	0.000000	0.000000	0.000000
; DL05-F02
2025	6039.478516	4.750000	0.000000	0.000000	0.000000
; DL05-F03
2026	6119.095215	5.250000	0.000000	0.000000	0.000000
; DL05-F04
2027	6123.470293	4.330000	0.000000	0.000000	0.000000
; DL05-F05
2028	6128.251387	4.420000	0.000000	0.000000	0.000000
; DL05-F06
2029	6135.194902	6.580000	0.000000	0.000000	0.000000
; CT04-A08
203	5887.292402	10.170000	0.000000	0.000000	0.000000
; DL05-F07
2030	6153.611328	9.250000	0.000000	0.000000	0.000000
; DL05-F08
2031	6156.065352	6.170000	0.000000	0.000000	0.000000
; DL05-F09
2032	6174.155684	7.170000	0.000000	0.000000	0.000000
; DL05-F10
2033	6186.002031	7.330000	0.000000	0.000000	0.000000
; DL05-F11
2034	6204.632813	6.000000	0.000000	0.000000	0.000000
; DL05-F12
2035	6235.366113	5.150000	0.000000	0.000000	0.000000
; DL05-G01
2036	5979.411211	3.330000	0.000000	0.000000	0.000000
; DL05-G02
2037	5988.630273	-0.100000	0.000000	0.000000	0.000000
; DL05-H01
2038	6071.172754	-0.100000	0.000000	0.000000	0.000000
; DL05-I01
2039	5949.257246	6.420000	0.000000	0.000000	0.000000
; CT04-A09
204	5887.407637	10.170000	0.000000	0.000000	0.000000
; DL05-I02
2040	5976.273926	4.000000	0.000000	0.000000	0.000000
; DL05-I03
2041	5997.759688	5.670000	0.000000	0.000000	0.000000
; DL05-I04
2042	6028.069336	5.500000	0.000000	0.000000	0.000000
; DL05-I05
2043	6031.026934	4.830000	0.000000	0.000000	0.000000
; DL05-I06
2044	6032.804121	3.170000	0.000000	0.000000	0.000000
; DL05-I07
2045	6032.465254	3.670000	0.000000	0.000000	0.000000
; DL05-I08
2046	6034.281250	4.750000	0.000000	0.000000	0.000000
; DL05-I09
2047	6039.539453	-0.100000	0.000000	0.000000	0.000000
; DL05-J01
2048	5952.077070	4.670000	0.000000	0.000000	0.000000
; DL05-J02
2049	5984.507227	-0.100000	0.000000	0.000000	0.000000
; CT04-A10
205	5887.604980	7.250000	0.000000	0.000000	0.000000
; DL05-K01
2050	6042.063867	-0.100000	0.000000	0.000000	0.000000
; DL05-L01
2051	5955.624902	-0.100000	0.000000	0.000000	0.000000
; DL05-O01
2054	6210.880371	4.000000	0.000000	0.000000	0.000000
; DL05-O02
2055	6219.963379	5.750000	0.000000	0.000000	0.000000
; DL05-O03
2056	6225.023359	7.420000	0.000000	0.000000	0.000000
; DL05-O04
2057	6229.424297	5.980000	0.000000	0.000000	0.000000
; DL06-A01
2059	5945.168867	5.920000	0.000000	0.000000	0.000000
; CT04-A11
206	5887.998457	6.670000	0.000000	0.000000	0.000000
; DL06-A02
2060	5944.935547	6.000000	0.000000	0.000000	0.000000
; DL06-A03
2061	5946.256836	5.750000	0.000000	0.000000	0.000000
; DL06-A04
2062	5949.317871	6.500000	0.000000	0.000000	0.000000
; DL06-A05
2063	5955.363770	6.000000	0.000000	0.000000	0.000000
; DL06-A06
2064	5955.352461	5.920000	0.000000	0.000000	0.000000
; DL06-A07
2065	5967.861230	-0.100000	0.000000	0.000000	0.000000
; DL06-B01
2066	5976.932617	7.000000	0.000000	0.000000	0.000000
; DL06-B02
2067	5986.357832	7.670000	0.000000	0.000000	0.000000
; DL06-B03
2068	5991.396484	9.250000	0.000000	0.000000	0.000000
; DL06-B04
2069	5997.229004	8.250000	0.000000	0.000000	0.000000
; CT04-A12
207	5888.171797	5.670000	0.000000	0.000000	0.000000
; DL06-B05
2070	5996.112715	4.670000	0.000000	0.000000	0.000000
; DL06-B06
2071	6014.918848	-0.100000	0.000000	0.000000	0.000000
; DL06-BP01
2072	0.000000	0.000000	0.000000	1000.000000	0.000000
; DL06-BP02
2073	0.000000	0.000000	0.000000	1000.000000	0.000000
; DL06-BP03
2074	0.000000	0.000000	0.000000	1000.000000	0.000000
; DL06-BP04
2075	0.000000	0.000000	0.000000	1000.000000	0.000000
; DL06-C01
2076	6043.820234	7.170000	0.000000	0.000000	0.000000
; DL06-C02
2077	6042.569258	5.920000	0.000000	0.000000	0.000000
; DL06-C03
2078	6055.323633	-0.100000	0.000000	0.000000	0.000000
; DL06-D01
2079	6076.591230	4.170000	0.000000	0.000000	0.000000
; CT04-B01
208	5894.900313	6.420000	0.000000	0.000000	0.000000
; DL06-D02
2080	6094.898340	-0.100000	0.000000	0.000000	0.000000
; DL06-E01
2081	6089.786035	-0.100000	0.000000	0.000000	0.000000
; DL06-F01
2082	6045.907637	5.920000	0.000000	0.000000	0.000000
; DL06-F02
2083	6079.729570	4.830000	0.000000	0.000000	0.000000
; DL06-F03
2084	6114.183027	4.920000	0.000000	0.000000	0.000000
; DL06-F04
2085	6125.485254	-0.100000	0.000000	0.000000	0.000000
; DL06-G01
2086	6053.638086	-0.100000	0.000000	0.000000	0.000000
; DL06-H01
2087	6091.425195	-0.100000	0.000000	0.000000	0.000000
; DL06-I01