[TITLE]
;;Project Title/Notes

[OPTIONS]
;;Option             Value
FLOW_UNITS           MGD
INFILTRATION         GREEN_AMPT
FLOW_ROUTING         DYNWAVE
LINK_OFFSETS         DEPTH
MIN_SLOPE            0
ALLOW_PONDING        YES
SKIP_STEADY_STATE    NO

START_DATE           07/17/2012
START_TIME           00:00:00
REPORT_START_DATE    07/17/2012
REPORT_START_TIME    05:25:00
END_DATE             12/11/2012
END_TIME             00:00:00
SWEEP_START          01/01
SWEEP_END            12/31
DRY_DAYS             0
REPORT_STEP          00:05:00
WET_STEP             00:05:00
DRY_STEP             12:00:00
ROUTING_STEP         0:00:30 

INERTIAL_DAMPING     NONE
NORMAL_FLOW_LIMITED  BOTH
FORCE_MAIN_EQUATION  H-W
VARIABLE_STEP        0.85
LENGTHENING_STEP     15
MIN_SURFAREA         12.557
MAX_TRIALS           8
HEAD_TOLERANCE       0.005
SYS_FLOW_TOL         5
LAT_FLOW_TOL         5
MINIMUM_STEP         0.5
THREADS              1

[EVAPORATION]
;;Data Source    Parameters
;;-------------- ----------------
CONSTANT         0.1
DRY_ONLY         NO

[RAINGAGES]
;;Name           Format    Interval SCF      Source    
;;-------------- --------- ------ ------ ----------
EastWWTP         VOLUME    0:05     1.0      TIMESERIES EastWWTP_2012   
Rain_Gage1       CUMULATIVE 0:09     1        TIMESERIES 2yr_3hr_Rain    
Weinbach         VOLUME    0:05     1.0      TIMESERIES Weinbach_2012   

[SUBCATCHMENTS]
;;Name           Rain Gage        Outlet           Area     %Imperv  Width    %Slope   CurbLen  SnowPack        
;;-------------- ---------------- ---------------- -------- -------- -------- -------- -------- ----------------
#10140           EastWWTP         10140            42.76    7        1355     0.2      0                        
#11839           EastWWTP         11839            19.4     56       590      0.5      0                        
#12555           EastWWTP         12555            5.55     84       549      0.6      0                        
#1274            EastWWTP         1274             22.91    38       661      0.7      0                        
#1277            EastWWTP         1277             7.89     70       753      1.8      0                        
#144822          EastWWTP         144822           6.52     86       285      1.2      0                        
#1505            EastWWTP         1505             22.42    36       939      0.4      0                        
#1510            EastWWTP         1510             14.15    25       666      0.3      0                        
#1528            EastWWTP         1528             26.41    28       1000     0.7      0                        
#1547            EastWWTP         1547             28.98    21       1061     0.4      0                        
#15533           EastWWTP         15533            41.78    18       774      0.4      0                        
#15641           EastWWTP         15641            58.98    25       1223     0.3      0                        
#15646           EastWWTP         15646            34.13    30       1058     0.4      0                        
#1569            EastWWTP         DS_#4            39.98    19       1052     0.4      0                        
#15710           EastWWTP         15710            7.12     30       517      0.2      0                        
#15715           EastWWTP         15715            24.15    27       596      0.2      0                        
#15734           EastWWTP         15734            34.4     25       1006     0.2      0                        
#15744           EastWWTP         15744            11.15    32       413      0.3      0                        
#15776           EastWWTP         15776            87.14    24       1795     0.1      0                        
#15793           EastWWTP         15793            7.68     88       475      0.8      0                        
#15794           EastWWTP         15794            2.24     93       407      2.6      0                        
#15833           EastWWTP         15833            10.69    53       592      1.5      0                        
#15835           EastWWTP         15835            5.79     73       524      2.3      0                        
#15837           EastWWTP         15837            2.62     78       399      1.3      0                        
#15839           EastWWTP         15839            11.09    40       374      0.8      0                        
#15856           EastWWTP         15856            65.45    11       1338     0.1      0                        
#15868           EastWWTP         15868            70.6     25       1538     0.2      0                        
#15882           EastWWTP         15882            6.55     21       510      1.4      0                        
#15889           EastWWTP         15889            15.87    48       537      1.3      0                        
#15908           EastWWTP         15908            4.99     94       343      0.8      0                        
#15909           EastWWTP         15909            6.42     87       438      2.2      0                        
#15911           EastWWTP         15911            2.69     83       451      0.4      0                        
#15912           EastWWTP         15912            9.66     74       802      1.7      0                        
#15917           EastWWTP         15917            3.19     99       460      0.8      0                        
#15918           EastWWTP         15918            6.76     86       508      1.8      0                        
#15919           EastWWTP         15919            3.2      95       487      1.9      0                        
#15924           EastWWTP         15924            5.39     72       522      0.9      0                        
#15931           EastWWTP         15931            5        69       456      0.7      0                        
#15932           EastWWTP         15932            5.66     74       411      0.5      0                        
#15986           EastWWTP         15986            10.96    26       550      0.3      0                        
#15988           EastWWTP         15988            50.34    24       879      0.5      0                        
#1683            EastWWTP         1683             46.62    15       1269     0.6      0                        
#1695            EastWWTP         1695             64.45    28       1661     0.6      0                        
#1745            EastWWTP         1745             61.16    7        1319     0.1      0                        
#1777            EastWWTP         1777             67.32    13       1543     0.1      0                        
#1819            EastWWTP         1819             80.37    29       1862     0.2      0                        
#1834            EastWWTP         1834             48.65    29       865      0.5      0                        
#1932            EastWWTP         1932             19.6     24       530      0.1      0                        
#1960            EastWWTP         1960             113.78   11       1377     0.1      0                        
#2064            Weinbach         2064             26.94    23       978      0.1      0                        
#2097            Weinbach         2097             28.77    20       975      0.8      0                        
#2120            Weinbach         2120             31.46    22       979      0.7      0                        
#2128            Weinbach         2128             22.78    26       724      0.8      0                        
#2234            EastWWTP         2234             37.8     13       920      0.1      0                        
#2235            EastWWTP         2235             28.1     28       744      0.2      0                        
#2286            EastWWTP         2286             90.93    7        1425     0.2      0                        
#2465            EastWWTP         2465             43.11    16       1070     0.1      0                        
#2467            EastWWTP         2467             14.67    16       576      0.3      0                        
#2498            EastWWTP         2498             44.16    20       1214     0.7      0                        
#2520            EastWWTP         2520             119.79   23       1940     0.6      0                        
#2542            EastWWTP         2542             69.18    26       1402     0.6      0                        
#280982          EastWWTP         280982           24.12    24       643      0.3      0                        
#282389          EastWWTP         282389           15.33    26       435      0.6      0                        
#282491          EastWWTP         282491           33.61    9        837      0.1      0                        
#282494          EastWWTP         282494           23.09    26       842      0.1      0                        
#282507          EastWWTP         282507           13.4     40       640      0.5      0                        
#282562          EastWWTP         282562           8.82     85       597      0.6      0                        
#282563          EastWWTP         282563           4.6      76       475      0.9      0                        
#3272            EastWWTP         3272             32.85    18       751      0.2      0                        
#3283            EastWWTP         3283             38.42    14       982      0.3      0                        
#3284            EastWWTP         3284             92.99    16       1588     0.2      0                        
#3291            EastWWTP         3291             76.4     14       899      0.4      0                        
#3312            EastWWTP         3312             46.81    4        2774     0.2      0                        
#3371            EastWWTP         3371             2.71     14       128      0.3      0                        
#3392            EastWWTP         3392             32.52    7        509      0.6      0                        
#3409            EastWWTP         3409             8.08     11       512      0.3      0                        
#3416            EastWWTP         3416             20.6     10       612      0.5      0                        
#3421            EastWWTP         3421             24.59    4        609      0.3      0                        
#3615            EastWWTP         3615             42.77    2        671      0.1      0                        
#3619            EastWWTP         3619             44.24    3        613      0.2      0                        
#3662            EastWWTP         3662             23.54    2        738      0.4      0                        
#3685            EastWWTP         3685             33.5     6        585      0.2      0                        
#37162           EastWWTP         37162            39.96    10       1445     0.3      0                        
#3916            EastWWTP         3916             55.18    13       1029     0.2      0                        
#3976            EastWWTP         3976             87.99    9        1217     0.3      0                        
#40              EastWWTP         40               11.53    70       493      0.8      0                        
#4127            EastWWTP         4127             4.69     44       471      0.3      0                        
#4129            EastWWTP         4129             23.66    31       928      0.2      0                        
#4136            EastWWTP         4136             28.21    29       664      0.1      0                        
#4156            EastWWTP         4156             32.82    68       1076     0.7      0                        
#4158            EastWWTP         4158             30.62    36       781      0.2      0                        
#4160            EastWWTP         4160             32.87    33       883      0.3      0                        
#4164            EastWWTP         4164             6.39     83       308      0.3      0                        
#41916           EastWWTP         41916            17.67    16       837      0.2      0                        
#41918           EastWWTP         41918            51.25    33       1092     0.1      0                        
#41925           EastWWTP         DS_#38           23.2     28       993      2.4      0                        
#41946           EastWWTP         41946            5.75     56       438      0.4      0                        
#41947           EastWWTP         41947            9.36     71       569      1.3      0                        
#42066           EastWWTP         42066            24.2     67       526      0.5      0                        
#42067           EastWWTP         42067            10.25    55       436      0.9      0                        
#4251            EastWWTP         4251             13.23    44       495      1.5      0                        
#4260            EastWWTP         4260             7.21     63       426      3        0                        
#4262            EastWWTP         4262             10.53    83       296      2.1      0                        
#4271            EastWWTP         4271             12.44    39       364      0.2      0                        
#4272            EastWWTP         4272             5.65     85       363      1.1      0                        
#4273            EastWWTP         4273             11       71       595      0.2      0                        
#4277            EastWWTP         4277             7.07     92       280      0.6      0                        
#4278            EastWWTP         4278             5.58     60       414      0.2      0                        
#4279            EastWWTP         4279             17.51    43       534      0.8      0                        
#4280            EastWWTP         4280             17.78    55       432      0.2      0                        
#4299            EastWWTP         4299             7.94     90       532      1.6      0                        
#43112           Weinbach         43112            451.21   2        7603     0.5      0                        
#4868            EastWWTP         4868             6.27     92       409      0.5      0                        
#4870            EastWWTP         4870             9.96     88       715      1.2      0                        
#50154           EastWWTP         50154            105.18   19       1800     0.4      0                        
#5035            EastWWTP         5035             8.92     88       452      0.8      0                        
#50478           EastWWTP         50478            24.7     9        699      0.1      0                        
#5071            Weinbach         5071             37.21    26       1013     0.5      0                        
#5094            Weinbach         5094             129.13   21       2432     1.3      0                        
#5108            Weinbach         5108             45.64    11       846      0.6      0                        
#5109            Weinbach         5109             28.8     18       794      0.8      0                        
#5122            Weinbach         5122             103.01   26       2040     0.5      0                        
#5173            Weinbach         5173             71.25    11       1753     0.5      0                        
#5177            Weinbach         5177             31.76    20       721      0.4      0                        
#5182            Weinbach         5182             77.93    16       1845     0.2      0                        
#5232            Weinbach         5232             55.87    8        1644     0.3      0                        
#5261            EastWWTP         5261             34.98    9        781      0.2      0                        
#5293            Weinbach         5293             269.89   9        2703     0.3      0                        
#5309            Weinbach         5309             85.99    12       1362     0.3      0                        
#5321            Weinbach         5321             45.1     10       1198     0.2      0                        
#5348            EastWWTP         5348             47.51    17       1193     0.4      0                        
#5362            EastWWTP         5362             36.2     18       798      0.4      0                        
#5394            Weinbach         5394             53.63    13       1424     0.1      0                        
#5397            Weinbach         5397             34.63    17       887      0.8      0                        
#5499            Weinbach         5499             16.57    12       1017     0.2      0                        
#5549            Weinbach         5549             195.32   6        2934     0.1      0                        
#61995           Weinbach         61995            71.59    26       967      0.2      0                        
#6379            Weinbach         6379             113      10       5469     0.8      0                        
#6591            EastWWTP         6591             18.04    19       519      0.3      0                        
#6597            EastWWTP         6597             19.55    28       585      0.3      0                        
#65984           Weinbach         65984            18.63    26       498      0.4      0                        
#6694            EastWWTP         6694             26.11    18       743      0.2      0                        
#6703            EastWWTP         6703             26.71    16       895      0.4      0                        
#6719            EastWWTP         6719             36.97    21       748      0.2      0                        
#67495           EastWWTP         67495            4.63     6        353      0.4      0                        
#6765            EastWWTP         6765             30.56    19       720      0.2      0                        
#6792            EastWWTP         6792             22.56    18       702      0.3      0                        
#6793            Weinbach         6793             94.5     21       1016     0.3      0                        
#7812            EastWWTP         7812             66.85    21       1749     0.2      0                        
#7873            EastWWTP         7873             4.33     81       286      1.5      0                        
#7879            EastWWTP         7879             7.97     87       391      0.4      0                        
#7909            EastWWTP         7909             4.19     93       558      0.6      0                        
#7917            EastWWTP         7917             2.59     67       313      1.3      0                        
#7931            EastWWTP         7931             3.54     98       378      2        0                        
#7943            EastWWTP         7943             6.01     81       430      1.4      0                        
#7962            EastWWTP         7962             11.22    76       738      0.4      0                        
#7965            EastWWTP         7965             5.71     90       686      1.2      0                        
#7979            EastWWTP         DS_#10C          7.53     72       437      1.3      0                        
#7980            EastWWTP         7980             10.06    78       380      1.2      0                        
#7983            EastWWTP         7983             5.43     87       318      1.4      0                        
#7987            EastWWTP         7987             4.61     92       349      0.8      0                        
#7989            EastWWTP         7989             8.41     91       640      0.7      0                        
#7990            EastWWTP         7990             9.13     86       449      0.4      0                        
#7997            EastWWTP         7997             10.4     63       445      0.9      0                        
#7998            EastWWTP         7998             13.59    47       924      1.5      0                        
#8001            EastWWTP         8001             7.78     79       517      0.8      0                        
#8004            EastWWTP         8004             7.62     87       697      0.2      0                        
#8007            EastWWTP         8007             14.22    89       427      0.5      0                        
#8009            EastWWTP         8009             16.33    82       742      1.2      0                        
#8016            EastWWTP         8016             10.26    25       386      1        0                        
#8031            EastWWTP         8031             12.59    82       378      0.6      0                        
#82500           EastWWTP         DS_#1            139.05   15       2148     0.7      0                        
#9385            EastWWTP         9385             13.36    28       665      0.6      0                        
#9392            EastWWTP         9392             6.86     21       546      0.5      0                        
#9405            EastWWTP         9405             6.31     29       359      0.8      0                        
#9415            EastWWTP         9415             10.39    31       474      0.5      0                        
#99481           Weinbach         99481            104.79   3        9610     0.5      0                        
#9972            EastWWTP         9972             12.53    9        846      0.2      0                        

[SUBAREAS]
;;Subcatchment   N-Imperv   N-Perv     S-Imperv   S-Perv     PctZero    RouteTo    PctRouted 
;;-------------- ---------- ---------- ---------- ---------- ---------- ---------- ----------
#10140           0.011      0.15       0.05       0.1        25         IMPERVIOUS 100       
#11839           0.011      0.15       0.05       0.1        25         IMPERVIOUS 100       
#12555           0.011      0.15       0.05       0.1        25         IMPERVIOUS 100       
#1274            0.011      0.15       0.05       0.1        25         IMPERVIOUS 100       
#1277            0.011      0.15       0.05       0.1        25         IMPERVIOUS 100       
#144822          0.011      0.15       0.05       0.1        25         IMPERVIOUS 100       
#1505            0.011      0.15       0.05       0.1        25         IMPERVIOUS 100       
#1510            0.011      0.15       0.05       0.1        25         IMPERVIOUS 100       
#1528            0.011      0.15       0.05       0.1        25         IMPERVIOUS 100       
#1547            0.011      0.15       0.05       0.1        25         IMPERVIOUS 100       
#15533           0.011      0.15       0.05       0.1        25         IMPERVIOUS 100       
#15641           0.011      0.15       0.05       0.1        25         IMPERVIOUS 100       
#15646           0.011      0.15       0.05       0.1        25         IMPERVIOUS 100       
#1569            0.011      0.15       0.05       0.1        25         IMPERVIOUS 100       
#15710           0.011      0.15       0.05       0.1        25         IMPERVIOUS 100       
#15715           0.011      0.15       0.05       0.1        25         IMPERVIOUS 100       
#15734           0.011      0.15       0.05       0.1        25         IMPERVIOUS 100       
#15744           0.011      0.15       0.05       0.1        25         IMPERVIOUS 100       
#15776           0.011      0.15       0.05       0.1        25         IMPERVIOUS 100       
#15793           0.011      0.15       0.05       0.1        25         IMPERVIOUS 100       
#15794           0.011      0.15       0.05       0.1        25         IMPERVIOUS 100       
#15833           0.011      0.15       0.05       0.1        25         IMPERVIOUS 100       
#15835           0.011      0.15       0.05       0.1        25         IMPERVIOUS 100       
#15837           0.011      0.15       0.05       0.1        25         IMPERVIOUS 100       
#15839           0.011      0.15       0.05       0.1        25         IMPERVIOUS 100       
#15856           0.011      0.15       0.05       0.1        25         IMPERVIOUS 100       
#15868           0.011      0.15       0.05       0.1        25         IMPERVIOUS 100       
#15882           0.011      0.15       0.05       0.1        25         IMPERVIOUS 100       
#15889           0.011      0.15       0.05       0.1        25         IMPERVIOUS 100       
#15908           0.011      0.15       0.05       0.1        25         IMPERVIOUS 100       
#15909           0.011      0.15       0.05       0.1        25         IMPERVIOUS 100       
#15911           0.011      0.15       0.05       0.1        25         IMPERVIOUS 100       
#15912           0.011      0.15       0.05       0.1        25         IMPERVIOUS 100       
#15917           0.011      0.15       0.05       0.1        25         IMPERVIOUS 100       
#15918           0.011      0.15       0.05       0.1        25         IMPERVIOUS 100       
#15919           0.011      0.15       0.05       0.1        25         IMPERVIOUS 100       
#15924           0.011      0.15       0.05       0.1        25         IMPERVIOUS 100       
#15931           0.011      0.15       0.05       0.1        25         IMPERVIOUS 100       
#15932           0.011      0.15       0.05       0.1        25         IMPERVIOUS 100       
#15986           0.011      0.15       0.05       0.1        25         IMPERVIOUS 100       
#15988           0.011      0.15       0.05       0.1        25         IMPERVIOUS 100       
#1683            0.011      0.15       0.05       0.1        25         IMPERVIOUS 100       
#1695            0.011      0.15       0.05       0.1        25         IMPERVIOUS 100       
#1745            0.011      0.15       0.05       0.1        25         IMPERVIOUS 100       
#1777            0.011      0.15       0.05       0.1        25         IMPERVIOUS 100       
#1819            0.011      0.15       0.05       0.1        25         IMPERVIOUS 100       
#1834            0.011      0.15       0.05       0.1        25         IMPERVIOUS 100       
#1932            0.011      0.15       0.05       0.1        25         IMPERVIOUS 100       
#1960            0.011      0.15       0.05       0.1        25         IMPERVIOUS 100       
#2064            0.011      0.15       0.05       0.1        25         IMPERVIOUS 100       
#2097            0.011      0.15       0.05       0.1        25         IMPERVIOUS 100       
#2120            0.011      0.15       0.05       0.1        25         IMPERVIOUS 100       
#2128            0.011      0.15       0.05       0.1        25         IMPERVIOUS 100       
#2234            0.011      0.15       0.05       0.1        25         IMPERVIOUS 100       
#2235            0.011      0.15       0.05       0.1        25         IMPERVIOUS 100       
#2286            0.011      0.15       0.05       0.1        25         IMPERVIOUS 100       
#2465            0.011      0.15       0.05       0.1        25         IMPERVIOUS 100       
#2467            0.011      0.15       0.05       0.1        25         IMPERVIOUS 100       
#2498            0.011      0.15       0.05       0.1        25         IMPERVIOUS 100       
#2520            0.011      0.15       0.05       0.1        25         IMPERVIOUS 100       
#2542            0.011      0.15       0.05       0.1        25         IMPERVIOUS 100       
#280982          0.011      0.15       0.05       0.1        25         IMPERVIOUS 100       
#282389          0.011      0.15       0.05       0.1        25         IMPERVIOUS 100       
#282491          0.011      0.15       0.05       0.1        25         IMPERVIOUS 100       
#282494          0.011      0.15       0.05       0.1        25         IMPERVIOUS 100       
#282507          0.011      0.15       0.05       0.1        25         IMPERVIOUS 100       
#282562          0.011      0.15       0.05       0.1        25         IMPERVIOUS 100       
#282563          0.011      0.15       0.05       0.1        25         IMPERVIOUS 100       
#3272            0.011      0.15       0.05       0.1        25         IMPERVIOUS 100       
#3283            0.011      0.15       0.05       0.1        25         IMPERVIOUS 100       
#3284            0.011      0.15       0.05       0.1        25         IMPERVIOUS 100       
#3291            0.011      0.15       0.05       0.1        25         IMPERVIOUS 100       
#3312            0.011      0.15       0.05       0.1        25         IMPERVIOUS 100       
#3371            0.011      0.15       0.05       0.1        25         IMPERVIOUS 100       
#3392            0.011      0.15       0.05       0.1        25         IMPERVIOUS 100       
#3409            0.011      0.15       0.05       0.1        25         IMPERVIOUS 100       
#3416            0.011      0.15       0.05       0.1        25         IMPERVIOUS 100       
#3421            0.011      0.15       0.05       0.1        25         IMPERVIOUS 100       
#3615            0.011      0.15       0.05       0.1        25         IMPERVIOUS 100       
#3619            0.011      0.15       0.05       0.1        25         IMPERVIOUS 100       
#3662            0.011      0.15       0.05       0.1        25         IMPERVIOUS 100       
#3685            0.011      0.15       0.05       0.1        25         IMPERVIOUS 100       
#37162           0.011      0.15       0.05       0.1        25         IMPERVIOUS 100       
#3916            0.011      0.15       0.05       0.1        25         IMPERVIOUS 100       
#3976            0.011      0.15       0.05       0.1        25         IMPERVIOUS 100       