[OPTIONS]
;Option and Files Scenario Set: BASE, Base Simulation Options
FLOW_UNITS	CFS
INFILTRATION	HORTON
FLOW_ROUTING	KINWAVE
ALLOW_PONDING	NO
DRY_DAYS	5.000000
SKIP_STEADY_STATE 	NO
IGNORE_RAINFALL	NO
IGNORE_SNOWMELT	NO
IGNORE_GROUNDWATER	NO
IGNORE_QUALITY	NO
FORCE_MAIN_EQUATION	H-W
LINK_OFFSETS	DEPTH
MIN_SLOPE	0.000000
START_DATE	01/01/2002
START_TIME	00:00
END_DATE	01/02/2002
END_TIME	03:00
REPORT_START_DATE	01/01/2002
REPORT_START_TIME	00:00
SWEEP_START	01/01
SWEEP_END	12/31
WET_STEP	00:01:00
DRY_STEP	00:01:00
ROUTING_STEP	10
REPORT_STEP	00:01:00
INERTIAL_DAMPING	NONE
VARIABLE_STEP	0.750000
MINIMUM_STEP	0.5
LENGTHENING_STEP	0
MIN_SURFAREA	0.000000
NORMAL_FLOW_LIMITED	BOTH

[FILES]

[RAINGAGES]
SCS1A_10MINUTE	CUMULATIVE	0.166667	1.000000	TIMESERIES	SCS_1A_10MINUTE		
SCS1A_15MINUTE	CUMULATIVE	0.250000	1.000000	TIMESERIES	SCS_1A_15MINUTE		
SCS1A_1HOUR	CUMULATIVE	1.000000	1.000000	TIMESERIES	SCS_1A_1HOUR		
SCS1A_1MINUTE	CUMULATIVE	0.016667	1.000000	TIMESERIES	SCS_1A_1MINUTE		
SCS1A_30MINUTE	CUMULATIVE	0.500000	1.000000	TIMESERIES	SCS_1A_30MINUTE		
SCS1A_5MINUTE	CUMULATIVE	0.083333	1.000000	TIMESERIES	SCS_1A_5MINUTE		
SCS2_10MINUTE	CUMULATIVE	0.166667	1.000000	TIMESERIES	SCS_2_10MINUTE		
SCS2_15MINUTE	CUMULATIVE	0.250000	1.000000	TIMESERIES	SCS_2_15MINUTE		
SCS2_1HOUR	CUMULATIVE	1.000000	1.000000	TIMESERIES	SCS_2_1HOUR		
SCS2_1MINUTE	CUMULATIVE	0.016667	1.000000	TIMESERIES	SCS_2_1MINUTE		
SCS2_30MINUTE	CUMULATIVE	0.500000	1.000000	TIMESERIES	SCS_2_30MINUTE		
SCS2_5MINUTE	CUMULATIVE	0.083333	1.000000	TIMESERIES	SCS_2_5MINUTE		
SCS3_10MINUTE	CUMULATIVE	0.166667	1.000000	TIMESERIES	SCS_3_10MINUTE		
SCS3_15MINUTE	CUMULATIVE	0.250000	1.000000	TIMESERIES	SCS_3_15MINUTE		
SCS3_1HOUR	CUMULATIVE	1.000000	1.000000	TIMESERIES	SCS_3_1HOUR		
SCS3_1MINUTE	CUMULATIVE	0.016667	1.000000	TIMESERIES	SCS_3_1MINUTE		
SCS3_30MINUTE	CUMULATIVE	0.500000	1.000000	TIMESERIES	SCS_3_30MINUTE		
SCS3_5MINUTE	CUMULATIVE	0.083333	1.000000	TIMESERIES	SCS_3_5MINUTE		
SCS_10MINUTE	CUMULATIVE	0.166667	1.000000	TIMESERIES	SCS_1_10MINUTE		
SCS_15MINUTE	CUMULATIVE	0.250000	1.000000	TIMESERIES	SCS_1_15MINUTE		
SCS_1HOUR	CUMULATIVE	1.000000	1.000000	TIMESERIES	SCS_1_1HOUR		
SCS_1MINUTE	CUMULATIVE	0.016667	1.000000	TIMESERIES	SCS_1_1MINUTE		
SCS_30MINUTE	CUMULATIVE	0.500000	1.000000	TIMESERIES	SCS_1_30MINUTE		
SCS_5MINUTE	CUMULATIVE	0.083333	1.000000	TIMESERIES	SCS_1_5MINUTE		

[HYDROGRAPHS]

[TEMPERATURE]

[ADJUSTMENTS]

[SUBCATCHMENTS]
SCS1A_10MINUTE	SCS1A_10MINUTE	OUTFALL	0.821572	10.000000	100.000000	1.000000	0.000000
SCS1A_15MINUTE	SCS1A_15MINUTE	OUTFALL	0.385859	10.000000	100.000000	1.000000	0.000000
SCS1A_1HOUR	SCS1A_1HOUR	OUTFALL	0.534270	10.000000	100.000000	1.000000	0.000000
SCS1A_1MINUTE	SCS1A_1MINUTE	OUTFALL	0.559559	10.000000	100.000000	1.000000	0.000000
SCS1A_30MINUTE	SCS1A_30MINUTE	OUTFALL	0.345210	10.000000	100.000000	1.000000	0.000000
SCS1A_5MINUTE	SCS1A_15MINUTE	OUTFALL	0.952454	10.000000	100.000000	1.000000	0.000000
SCS3_5MINUTE	SCS3_5MINUTE	OUTFALL	0.568202	10.000000	100.000000	1.000000	0.000000
SCSTY1_5MINUTE	SCS_5MINUTE	OUTFALL	1.040590	10.000000	100.000000	1.000000	0.000000

[SUBAREAS]
SCS1A_10MINUTE	0.200000	0.015000	0.050000	0.250000	25.000000	OUTLET
SCS1A_15MINUTE	0.200000	0.015000	0.050000	0.250000	25.000000	OUTLET
SCS1A_1HOUR	0.200000	0.015000	0.050000	0.250000	25.000000	OUTLET
SCS1A_1MINUTE	0.200000	0.015000	0.050000	0.250000	25.000000	OUTLET
SCS1A_30MINUTE	0.200000	0.015000	0.050000	0.250000	25.000000	OUTLET
SCS1A_5MINUTE	0.200000	0.015000	0.050000	0.250000	25.000000	OUTLET
SCS3_5MINUTE	0.200000	0.015000	0.050000	0.250000	25.000000	OUTLET
SCSTY1_5MINUTE	0.200000	0.015000	0.050000	0.250000	25.000000	OUTLET

[INFILTRATION]
SCSTY1_5MINUTE	1.000000	0.100000	0.100000	0.001000	0.000000

[AQUIFERS]

[GROUNDWATER]

[GWF]

[SNOWPACKS]

[JUNCTIONS]

[OUTFALLS]
OUTFALL	0.000000	FREE	NO

[DIVIDERS]

[STORAGE]

[CONDUITS]

[PUMPS]

[ORIFICES]

[WEIRS]

[XSECTIONS]

[TRANSECTS]

[LOSSES]

[CONTROLS]

[POLLUTANTS]

[LANDUSES]

[COVERAGES]

[BUILDUP]

[WASHOFF]

[TREATMENT]

[INFLOWS]

[DWF]

[RDII]

[LOADINGS]

[CURVES]

[TIMESERIES]
SCS_1_1HOUR	1.000000	0.024083
SCS_1_1HOUR	2.000000	0.237975
SCS_1_1HOUR	3.000000	0.468161
SCS_1_1HOUR	4.000000	0.718513
SCS_1_1HOUR	5.000000	0.994681
SCS_1_1HOUR	6.000000	1.305464
SCS_1_1HOUR	7.000000	1.665948
SCS_1_1HOUR	8.000000	2.106258
SCS_1_1HOUR	9.000000	2.706981
SCS_1_1HOUR	10.000000	4.756857
SCS_1_1HOUR	11.000000	6.315767
SCS_1_1HOUR	12.000000	6.916240
SCS_1_1HOUR	13.000000	7.356445
SCS_1_1HOUR	14.000000	7.716869
SCS_1_1HOUR	15.000000	8.027611
SCS_1_1HOUR	16.000000	8.303749
SCS_1_1HOUR	17.000000	8.554079
SCS_1_1HOUR	18.000000	8.784246
SCS_1_1HOUR	19.000000	8.998124
SCS_1_1HOUR	20.000000	9.198502
SCS_1_1HOUR	21.000000	9.387466
SCS_1_1HOUR	22.000000	9.566622
SCS_1_1HOUR	23.000000	9.737238
SCS_1_1HOUR	24.000000	9.900334

SCS_1_15MINUTE	0.250000	0.000000
SCS_1_15MINUTE	0.750000	0.000000
SCS_1_15MINUTE	1.000000	0.024083
SCS_1_15MINUTE	1.250000	0.076195
SCS_1_15MINUTE	1.500000	0.129187
SCS_1_15MINUTE	1.750000	0.183099
SCS_1_15MINUTE	2.000000	0.237975
SCS_1_15MINUTE	2.250000	0.293865
SCS_1_15MINUTE	2.500000	0.350821
SCS_1_15MINUTE	2.750000	0.408899
SCS_1_15MINUTE	3.000000	0.468161
SCS_1_15MINUTE	3.250000	0.528675
SCS_1_15MINUTE	3.500000	0.590516
SCS_1_15MINUTE	3.750000	0.653765
SCS_1_15MINUTE	4.000000	0.718513
SCS_1_15MINUTE	4.250000	0.784860
SCS_1_15MINUTE	4.500000	0.852918
SCS_1_15MINUTE	4.750000	0.922811
SCS_1_15MINUTE	5.000000	0.994681
SCS_1_15MINUTE	5.250000	1.068686
SCS_1_15MINUTE	5.500000	1.145008
SCS_1_15MINUTE	5.750000	1.223854
SCS_1_15MINUTE	6.000000	1.305464
SCS_1_15MINUTE	6.250000	1.390117
SCS_1_15MINUTE	6.500000	1.478142
SCS_1_15MINUTE	6.750000	1.569929
SCS_1_15MINUTE	7.000000	1.665948
SCS_1_15MINUTE	7.250000	1.766774
SCS_1_15MINUTE	7.500000	1.873120
SCS_1_15MINUTE	7.750000	1.985890
SCS_1_15MINUTE	8.000000	2.106258
SCS_1_15MINUTE	8.250000	2.235795
SCS_1_15MINUTE	8.500000	2.376680
SCS_1_15MINUTE	8.750000	2.532091
SCS_1_15MINUTE	9.000000	2.706981
SCS_1_15MINUTE	9.250000	2.909837
SCS_1_15MINUTE	9.500000	3.157608
SCS_1_15MINUTE	9.750000	3.495626
SCS_1_15MINUTE	10.000000	4.756857
SCS_1_15MINUTE	10.250000	5.528056
SCS_1_15MINUTE	10.500000	5.865514
SCS_1_15MINUTE	10.750000	6.113048
SCS_1_15MINUTE	11.000000	6.315767
SCS_1_15MINUTE	11.250000	6.490565
SCS_1_15MINUTE	11.500000	6.645910
SCS_1_15MINUTE	11.750000	6.786744
SCS_1_15MINUTE	12.000000	6.916240
SCS_1_15MINUTE	12.250000	7.036575
SCS_1_15MINUTE	12.500000	7.149318
SCS_1_15MINUTE	12.750000	7.255640
SCS_1_15MINUTE	13.000000	7.356445
SCS_1_15MINUTE	13.250000	7.452447
SCS_1_15MINUTE	13.500000	7.544218
SCS_1_15MINUTE	13.750000	7.632228
SCS_1_15MINUTE	14.000000	7.716869
SCS_1_15MINUTE	14.250000	7.798467
SCS_1_15MINUTE	14.500000	7.877302
SCS_1_15MINUTE	14.750000	7.953614
SCS_1_15MINUTE	15.000000	8.027611
SCS_1_15MINUTE	15.250000	8.099472
SCS_1_15MINUTE	15.500000	8.169358
SCS_1_15MINUTE	15.750000	8.237409
SCS_1_15MINUTE	16.000000	8.303749
SCS_1_15MINUTE	16.250000	8.368491
SCS_1_15MINUTE	16.500000	8.431734
SCS_1_15MINUTE	16.750000	8.493570
SCS_1_15MINUTE	17.000000	8.554079
SCS_1_15MINUTE	17.250000	8.613336
SCS_1_15MINUTE	17.500000	8.671409
SCS_1_15MINUTE	17.750000	8.728360
SCS_1_15MINUTE	18.000000	8.784246
SCS_1_15MINUTE	18.250000	8.839119
SCS_1_15MINUTE	18.500000	8.893027
SCS_1_15MINUTE	18.750000	8.946015
SCS_1_15MINUTE	19.000000	8.998124
SCS_1_15MINUTE	19.250000	9.049393
SCS_1_15MINUTE	19.500000	9.099857
SCS_1_15MINUTE	19.750000	9.149550
SCS_1_15MINUTE	20.000000	9.198502
SCS_1_15MINUTE	20.250000	9.246744
SCS_1_15MINUTE	20.500000	9.294301
SCS_1_15MINUTE	20.750000	9.341201
SCS_1_15MINUTE	21.000000	9.387466
SCS_1_15MINUTE	21.250000	9.433120
SCS_1_15MINUTE	21.500000	9.478184
SCS_1_15MINUTE	21.750000	9.522679
SCS_1_15MINUTE	22.000000	9.566622
SCS_1_15MINUTE	22.250000	9.610033
SCS_1_15MINUTE	22.500000	9.652929
SCS_1_15MINUTE	22.750000	9.695325
SCS_1_15MINUTE	23.000000	9.737238
SCS_1_15MINUTE	23.250000	9.778682
SCS_1_15MINUTE	23.500000	9.819670
SCS_1_15MINUTE	23.750000	9.860216
SCS_1_15MINUTE	24.000000	9.900334

SCS_1_10MINUTE	0.166667	0.000000
SCS_1_10MINUTE	0.833333	0.000000
SCS_1_10MINUTE	1.000000	0.024083
SCS_1_10MINUTE	1.166667	0.058729
SCS_1_10MINUTE	1.333333	0.093760
SCS_1_10MINUTE	1.500000	0.129187
SCS_1_10MINUTE	1.666667	0.165023
SCS_1_10MINUTE	1.833333	0.201281
SCS_1_10MINUTE	2.000000	0.237975
SCS_1_10MINUTE	2.166667	0.275120
SCS_1_10MINUTE	2.333333	0.312729
SCS_1_10MINUTE	2.500000	0.350821
SCS_1_10MINUTE	2.666667	0.389411
SCS_1_10MINUTE	2.833333	0.428518
SCS_1_10MINUTE	3.000000	0.468161
SCS_1_10MINUTE	3.166667	0.508360
SCS_1_10MINUTE	3.333333	0.549137
SCS_1_10MINUTE	3.500000	0.590516
SCS_1_10MINUTE	3.666667	0.632520
SCS_1_10MINUTE	3.833333	0.675176
SCS_1_10MINUTE	4.000000	0.718513
SCS_1_10MINUTE	4.166667	0.762560
SCS_1_10MINUTE	4.333333	0.807350
SCS_1_10MINUTE	4.500000	0.852918
SCS_1_10MINUTE	4.666667	0.899301
SCS_1_10MINUTE	4.833333	0.946541
SCS_1_10MINUTE	5.000000	0.994681
SCS_1_10MINUTE	5.166667	1.043770
SCS_1_10MINUTE	5.333333	1.093860
SCS_1_10MINUTE	5.500000	1.145008
SCS_1_10MINUTE	5.666667	1.197277
SCS_1_10MINUTE	5.833333	1.250737
SCS_1_10MINUTE	6.000000	1.305464
SCS_1_10MINUTE	6.166667	1.361542
SCS_1_10MINUTE	6.333333	1.419066
SCS_1_10MINUTE	6.500000	1.478142
SCS_1_10MINUTE	6.666667	1.538888
SCS_1_10MINUTE	6.833333	1.601439
SCS_1_10MINUTE	7.000000	1.665948
SCS_1_10MINUTE	7.166667	1.732590
SCS_1_10MINUTE	7.333333	1.801569
SCS_1_10MINUTE	7.500000	1.873120
SCS_1_10MINUTE	7.666667	1.947520
SCS_1_10MINUTE	7.833333	2.025101
SCS_1_10MINUTE	8.000000	2.106258
SCS_1_10MINUTE	8.166667	2.191478
SCS_1_10MINUTE	8.333333	2.281364
SCS_1_10MINUTE	8.500000	2.376680
SCS_1_10MINUTE	8.666667	2.478417
SCS_1_10MINUTE	8.833333	2.587903
SCS_1_10MINUTE	9.000000	2.706981
SCS_1_10MINUTE	9.166667	2.838337
SCS_1_10MINUTE	9.333333	2.986154
SCS_1_10MINUTE	9.500000	3.157608
SCS_1_10MINUTE	9.666667	3.367020
SCS_1_10MINUTE	9.833333	3.652696
SCS_1_10MINUTE	10.000000	4.756857
SCS_1_10MINUTE	10.166667	5.371435
SCS_1_10MINUTE	10.333333	5.656401
SCS_1_10MINUTE	10.500000	5.865514
SCS_1_10MINUTE	10.666667	6.036794
SCS_1_10MINUTE	10.833333	6.184495
SCS_1_10MINUTE	11.000000	6.315767
SCS_1_10MINUTE	11.166667	6.434780
SCS_1_10MINUTE	11.333333	6.544215
SCS_1_10MINUTE	11.500000	6.645910
SCS_1_10MINUTE	11.666667	6.741190
SCS_1_10MINUTE	11.833333	6.831046
SCS_1_10MINUTE	12.000000	6.916240
SCS_1_10MINUTE	12.166667	6.997375
SCS_1_10MINUTE	12.333333	7.074935
SCS_1_10MINUTE	12.500000	7.149318
SCS_1_10MINUTE	12.666667	7.220852
SCS_1_10MINUTE	12.833333	7.289816
SCS_1_10MINUTE	13.000000	7.356445
SCS_1_10MINUTE	13.166667	7.420942
SCS_1_10MINUTE	13.333333	7.483482
SCS_1_10MINUTE	13.500000	7.544218
SCS_1_10MINUTE	13.666667	7.603284
SCS_1_10MINUTE	13.833333	7.660799
SCS_1_10MINUTE	14.000000	7.716869
SCS_1_10MINUTE	14.166667	7.771587
SCS_1_10MINUTE	14.333333	7.825040
SCS_1_10MINUTE	14.500000	7.877302
SCS_1_10MINUTE	14.666667	7.928444
SCS_1_10MINUTE	14.833333	7.978528
SCS_1_10MINUTE	15.000000	8.027611
SCS_1_10MINUTE	15.166667	8.075746
SCS_1_10MINUTE	15.333333	8.122980
SCS_1_10MINUTE	15.500000	8.169358
SCS_1_10MINUTE	15.666667	8.214921
SCS_1_10MINUTE	15.833333	8.259707
SCS_1_10MINUTE	16.000000	8.303749
SCS_1_10MINUTE	16.166667	8.347082
SCS_1_10MINUTE	16.333333	8.389734
SCS_1_10MINUTE	16.500000	8.431734
SCS_1_10MINUTE	16.666667	8.473109
SCS_1_10MINUTE	16.833333	8.513883
SCS_1_10MINUTE	17.000000	8.554079
SCS_1_10MINUTE	17.166667	8.593718
SCS_1_10MINUTE	17.333333	8.632822
SCS_1_10MINUTE	17.500000	8.671409
SCS_1_10MINUTE	17.666667	8.709498
SCS_1_10MINUTE	17.833333	8.747105
SCS_1_10MINUTE	18.000000	8.784246
SCS_1_10MINUTE	18.166667	8.820937
SCS_1_10MINUTE	18.333333	8.857193
SCS_1_10MINUTE	18.500000	8.893027
SCS_1_10MINUTE	18.666667	8.928452
SCS_1_10MINUTE	18.833333	8.963480
SCS_1_10MINUTE	19.000000	8.998124
SCS_1_10MINUTE	19.166667	9.032394
SCS_1_10MINUTE	19.333333	9.066302
SCS_1_10MINUTE	19.500000	9.099857
SCS_1_10MINUTE	19.666667	9.133069
SCS_1_10MINUTE	19.833333	9.165948
SCS_1_10MINUTE	20.000000	9.198502
SCS_1_10MINUTE	20.166667	9.230741
SCS_1_10MINUTE	20.333333	9.262671
SCS_1_10MINUTE	20.500000	9.294301
SCS_1_10MINUTE	20.666667	9.325639
SCS_1_10MINUTE	20.833333	9.356692
SCS_1_10MINUTE	21.000000	9.387466
SCS_1_10MINUTE	21.166667	9.417969
SCS_1_10MINUTE	21.333333	9.448206
SCS_1_10MINUTE	21.500000	9.478184
SCS_1_10MINUTE	21.666667	9.507909
SCS_1_10MINUTE	21.833333	9.537387
SCS_1_10MINUTE	22.000000	9.566622
SCS_1_10MINUTE	22.166667	9.595621
SCS_1_10MINUTE	22.333333	9.624388
SCS_1_10MINUTE	22.500000	9.652929
SCS_1_10MINUTE	22.666667	9.681248
SCS_1_10MINUTE	22.833333	9.709349
SCS_1_10MINUTE	23.000000	9.737238
SCS_1_10MINUTE	23.166667	9.764918
SCS_1_10MINUTE	23.333333	9.792394
SCS_1_10MINUTE	23.500000	9.819670
SCS_1_10MINUTE	23.666667	9.846749
SCS_1_10MINUTE	23.833333	9.873636
SCS_1_10MINUTE	24.000000	9.900334

SCS_1_5MINUTE	0.083333	0.000000
SCS_1_5MINUTE	0.833333	0.000000
SCS_1_5MINUTE	0.916667	0.006900
SCS_1_5MINUTE	1.000000	0.024083
SCS_1_5MINUTE	1.083333	0.041358
SCS_1_5MINUTE	1.166667	0.058729
SCS_1_5MINUTE	1.250000	0.076195
SCS_1_5MINUTE	1.333333	0.093760
SCS_1_5MINUTE	1.416667	0.111423
SCS_1_5MINUTE	1.500000	0.129187
SCS_1_5MINUTE	1.583333	0.147053
SCS_1_5MINUTE	1.666667	0.165023
SCS_1_5MINUTE	1.750000	0.183099
SCS_1_5MINUTE	1.833333	0.201281
SCS_1_5MINUTE	1.916667	0.219573
SCS_1_5MINUTE	2.000000	0.237975
SCS_1_5MINUTE	2.083333	0.256490
SCS_1_5MINUTE	2.166667	0.275120
SCS_1_5MINUTE	2.250000	0.293865
SCS_1_5MINUTE	2.333333	0.312729
SCS_1_5MINUTE	2.416667	0.331714
SCS_1_5MINUTE	2.500000	0.350821
SCS_1_5MINUTE	2.583333	0.370052
SCS_1_5MINUTE	2.666667	0.389411
SCS_1_5MINUTE	2.750000	0.408899
SCS_1_5MINUTE	2.833333	0.428518
SCS_1_5MINUTE	2.916667	0.448271
SCS_1_5MINUTE	3.000000	0.468161
SCS_1_5MINUTE	3.083333	0.488190
SCS_1_5MINUTE	3.166667	0.508360
SCS_1_5MINUTE	3.250000	0.528675
SCS_1_5MINUTE	3.333333	0.549137
SCS_1_5MINUTE	3.416667	0.569750
SCS_1_5MINUTE	3.500000	0.590516
SCS_1_5MINUTE	3.583333	0.611438
SCS_1_5MINUTE	3.666667	0.632520
SCS_1_5MINUTE	3.750000	0.653765
SCS_1_5MINUTE	3.833333	0.675176
SCS_1_5MINUTE	3.916667	0.696758
SCS_1_5MINUTE	4.000000	0.718513
SCS_1_5MINUTE	4.083333	0.740446
SCS_1_5MINUTE	4.166667	0.762560
SCS_1_5MINUTE	4.250000	0.784860
SCS_1_5MINUTE	4.333333	0.807350
SCS_1_5MINUTE	4.416667	0.830034
SCS_1_5MINUTE	4.500000	0.852918
SCS_1_5MINUTE	4.583333	0.876005
SCS_1_5MINUTE	4.666667	0.899301
SCS_1_5MINUTE	4.750000	0.922811
SCS_1_5MINUTE	4.833333	0.946541
SCS_1_5MINUTE	4.916667	0.970495
SCS_1_5MINUTE	5.000000	0.994681
SCS_1_5MINUTE	5.083333	1.019103
SCS_1_5MINUTE	5.166667	1.043770
SCS_1_5MINUTE	5.250000	1.068686
SCS_1_5MINUTE	5.333333	1.093860
SCS_1_5MINUTE	5.416667	1.119298
SCS_1_5MINUTE	5.500000	1.145008
SCS_1_5MINUTE	5.583333	1.170998
SCS_1_5MINUTE	5.666667	1.197277
SCS_1_5MINUTE	5.750000	1.223854
SCS_1_5MINUTE	5.833333	1.250737
SCS_1_5MINUTE	5.916667	1.277937
SCS_1_5MINUTE	6.000000	1.305464
SCS_1_5MINUTE	6.083333	1.333328
SCS_1_5MINUTE	6.166667	1.361542
SCS_1_5MINUTE	6.250000	1.390117
SCS_1_5MINUTE	6.333333	1.419066
SCS_1_5MINUTE	6.416667	1.448403
SCS_1_5MINUTE	6.500000	1.478142
SCS_1_5MINUTE	6.583333	1.508298
SCS_1_5MINUTE	6.666667	1.538888
SCS_1_5MINUTE	6.750000	1.569929
SCS_1_5MINUTE	6.833333	1.601439
SCS_1_5MINUTE	6.916667	1.633438
SCS_1_5MINUTE	7.000000	1.665948
SCS_1_5MINUTE	7.083333	1.698991
SCS_1_5MINUTE	7.166667	1.732590
SCS_1_5MINUTE	7.250000	1.766774
SCS_1_5MINUTE	7.333333	1.801569
SCS_1_5MINUTE	7.416667	1.837007
SCS_1_5MINUTE	7.500000	1.873120
SCS_1_5MINUTE	7.583333	1.909945
SCS_1_5MINUTE	7.666667	1.947520
SCS_1_5MINUTE	7.750000	1.985890
SCS_1_5MINUTE	7.833333	2.025101
SCS_1_5MINUTE	7.916667	2.065204
SCS_1_5MINUTE	8.000000	2.106258
SCS_1_5MINUTE	8.083333	2.148326
SCS_1_5MINUTE	8.166667	2.191478
SCS_1_5MINUTE	8.250000	2.235795
SCS_1_5MINUTE	8.333333	2.281364
SCS_1_5MINUTE	8.416667	2.328288
SCS_1_5MINUTE	8.500000	2.376680
SCS_1_5MINUTE	8.583333	2.426672
SCS_1_5MINUTE	8.666667	2.478417
SCS_1_5MINUTE	8.750000	2.532091
SCS_1_5MINUTE	8.833333	2.587903
SCS_1_5MINUTE	8.916667	2.646101
SCS_1_5MINUTE	9.000000	2.706981
SCS_1_5MINUTE	9.083333	2.770909
SCS_1_5MINUTE	9.166667	2.838337
SCS_1_5MINUTE	9.250000	2.909837
SCS_1_5MINUTE	9.333333	2.986154
SCS_1_5MINUTE	9.416667	3.068284
SCS_1_5MINUTE	9.500000	3.157608
SCS_1_5MINUTE	9.583333	3.256141
SCS_1_5MINUTE	9.666667	3.367020
SCS_1_5MINUTE	9.750000	3.495626
SCS_1_5MINUTE	9.833333	3.652696
SCS_1_5MINUTE	9.916667	3.866939
SCS_1_5MINUTE	10.000000	4.756857
SCS_1_5MINUTE	10.083333	5.158251
SCS_1_5MINUTE	10.166667	5.371435
SCS_1_5MINUTE	10.250000	5.528056
SCS_1_5MINUTE	10.333333	5.656401
SCS_1_5MINUTE	10.416667	5.767107
SCS_1_5MINUTE	10.500000	5.865514
SCS_1_5MINUTE	10.583333	5.954741
SCS_1_5MINUTE	10.666667	6.036794
SCS_1_5MINUTE	10.750000	6.113048
SCS_1_5MINUTE	10.833333	6.184495
SCS_1_5MINUTE	10.916667	6.251878
SCS_1_5MINUTE	11.000000	6.315767
SCS_1_5MINUTE	11.083333	6.376613
SCS_1_5MINUTE	11.166667	6.434780
SCS_1_5MINUTE	11.250000	6.490565
SCS_1_5MINUTE	11.333333	6.544215
SCS_1_5MINUTE	11.416667	6.595938
SCS_1_5MINUTE	11.500000	6.645910
SCS_1_5MINUTE	11.583333	6.694284
SCS_1_5MINUTE	11.666667	6.741190
SCS_1_5MINUTE	11.750000	6.786744
SCS_1_5MINUTE	11.833333	6.831046
SCS_1_5MINUTE	11.916667	6.874185
SCS_1_5MINUTE	12.000000	6.916240
SCS_1_5MINUTE	12.083333	6.957282
SCS_1_5MINUTE	12.166667	6.997375
SCS_1_5MINUTE	12.250000	7.036575
SCS_1_5MINUTE	12.333333	7.074935
SCS_1_5MINUTE	12.416667	7.112502
SCS_1_5MINUTE	12.500000	7.149318
SCS_1_5MINUTE	12.583333	7.185423
SCS_1_5MINUTE	12.666667	7.220852
SCS_1_5MINUTE	12.750000	7.255640
SCS_1_5MINUTE	12.833333	7.289816
SCS_1_5MINUTE	12.916667	7.323409
SCS_1_5MINUTE	13.000000	7.356445
SCS_1_5MINUTE	13.083333	7.388949
SCS_1_5MINUTE	13.166667	7.420942
SCS_1_5MINUTE	13.250000	7.452447
SCS_1_5MINUTE	13.333333	7.483482
SCS_1_5MINUTE	13.416667	7.514066
SCS_1_5MINUTE	13.500000	7.544218
SCS_1_5MINUTE	13.583333	7.573952
SCS_1_5MINUTE	13.666667	7.603284
SCS_1_5MINUTE	13.750000	7.632228
SCS_1_5MINUTE	13.833333	7.660799
SCS_1_5MINUTE	13.916667	7.689008
SCS_1_5MINUTE	14.000000	7.716869
SCS_1_5MINUTE	14.083333	7.744391
SCS_1_5MINUTE	14.166667	7.771587
SCS_1_5MINUTE	14.250000	7.798467
SCS_1_5MINUTE	14.333333	7.825040
SCS_1_5MINUTE	14.416667	7.851315
SCS_1_5MINUTE	14.500000	7.877302
SCS_1_5MINUTE	14.583333	7.903009
SCS_1_5MINUTE	14.666667	7.928444
SCS_1_5MINUTE	14.750000	7.953614
SCS_1_5MINUTE	14.833333	7.978528
SCS_1_5MINUTE	14.916667	8.003191
SCS_1_5MINUTE	15.000000	8.027611
SCS_1_5MINUTE	15.083333	8.051794
SCS_1_5MINUTE	15.166667	8.075746
SCS_1_5MINUTE	15.250000	8.099472
SCS_1_5MINUTE	15.333333	8.122980
SCS_1_5MINUTE	15.416667	8.146273
SCS_1_5MINUTE	15.500000	8.169358
SCS_1_5MINUTE	15.583333	8.192239
SCS_1_5MINUTE	15.666667	8.214921
SCS_1_5MINUTE	15.750000	8.237409
SCS_1_5MINUTE	15.833333	8.259707
SCS_1_5MINUTE	15.916667	8.281819
SCS_1_5MINUTE	16.000000	8.303749
SCS_1_5MINUTE	16.083333	8.325502
SCS_1_5MINUTE	16.166667	8.347082
SCS_1_5MINUTE	16.250000	8.368491
SCS_1_5MINUTE	16.333333	8.389734
SCS_1_5MINUTE	16.416667	8.410814
SCS_1_5MINUTE	16.500000	8.431734
SCS_1_5MINUTE	16.583333	8.452498
SCS_1_5MINUTE	16.666667	8.473109
SCS_1_5MINUTE	16.750000	8.493570
SCS_1_5MINUTE	16.833333	8.513883
SCS_1_5MINUTE	16.916667	8.534052
SCS_1_5MINUTE	17.000000	8.554079
SCS_1_5MINUTE	17.083333	8.573967
SCS_1_5MINUTE	17.166667	8.593718
SCS_1_5MINUTE	17.250000	8.613336
SCS_1_5MINUTE	17.333333	8.632822
SCS_1_5MINUTE	17.416667	8.652179
SCS_1_5MINUTE	17.500000	8.671409
SCS_1_5MINUTE	17.583333	8.690515
SCS_1_5MINUTE	17.666667	8.709498
SCS_1_5MINUTE	17.750000	8.728360
SCS_1_5MINUTE	17.833333	8.747105
SCS_1_5MINUTE	17.916667	8.765732
SCS_1_5MINUTE	18.000000	8.784246
SCS_1_5MINUTE	18.083333	8.802647
SCS_1_5MINUTE	18.166667	8.820937
SCS_1_5MINUTE	18.250000	8.839119
SCS_1_5MINUTE	18.333333	8.857193
SCS_1_5MINUTE	18.416667	8.875162
SCS_1_5MINUTE	18.500000	8.893027
SCS_1_5MINUTE	18.583333	8.910790
SCS_1_5MINUTE	18.666667	8.928452
SCS_1_5MINUTE	18.750000	8.946015
SCS_1_5MINUTE	18.833333	8.963480
SCS_1_5MINUTE	18.916667	8.980850
SCS_1_5MINUTE	19.000000	8.998124
SCS_1_5MINUTE	19.083333	9.015305
SCS_1_5MINUTE	19.166667	9.032394
SCS_1_5MINUTE	19.250000	9.049393
SCS_1_5MINUTE	19.333333	9.066302
SCS_1_5MINUTE	19.416667	9.083123
SCS_1_5MINUTE	19.500000	9.099857
SCS_1_5MINUTE	19.583333	9.116505
SCS_1_5MINUTE	19.666667	9.133069
SCS_1_5MINUTE	19.750000	9.149550
SCS_1_5MINUTE	19.833333	9.165948
SCS_1_5MINUTE	19.916667	9.182265
SCS_1_5MINUTE	20.000000	9.198502
SCS_1_5MINUTE	20.083333	9.214660
SCS_1_5MINUTE	20.166667	9.230741
SCS_1_5MINUTE	20.250000	9.246744
SCS_1_5MINUTE	20.333333	9.262671
SCS_1_5MINUTE	20.416667	9.278523
SCS_1_5MINUTE	20.500000	9.294301
SCS_1_5MINUTE	20.583333	9.310006
SCS_1_5MINUTE	20.666667	9.325639
SCS_1_5MINUTE	20.750000	9.341201
SCS_1_5MINUTE	20.833333	9.356692
SCS_1_5MINUTE	20.916667	9.372113
SCS_1_5MINUTE	21.000000	9.387466
SCS_1_5MINUTE	21.083333	9.402751
SCS_1_5MINUTE	21.166667	9.417969
SCS_1_5MINUTE	21.250000	9.433120
SCS_1_5MINUTE	21.333333	9.448206
SCS_1_5MINUTE	21.416667	9.463227
SCS_1_5MINUTE	21.500000	9.478184
SCS_1_5MINUTE	21.583333	9.493078
SCS_1_5MINUTE	21.666667	9.507909
SCS_1_5MINUTE	21.750000	9.522679
SCS_1_5MINUTE	21.833333	9.537387
SCS_1_5MINUTE	21.916667	9.552035
SCS_1_5MINUTE	22.000000	9.566622
SCS_1_5MINUTE	22.083333	9.581151
SCS_1_5MINUTE	22.166667	9.595621
SCS_1_5MINUTE	22.250000	9.610033
SCS_1_5MINUTE	22.333333	9.624388
SCS_1_5MINUTE	22.416667	9.638687
SCS_1_5MINUTE	22.500000	9.652929
SCS_1_5MINUTE	22.583333	9.667116
SCS_1_5MINUTE	22.666667	9.681248
SCS_1_5MINUTE	22.750000	9.695325
SCS_1_5MINUTE	22.833333	9.709349
SCS_1_5MINUTE	22.916667	9.723320
SCS_1_5MINUTE	23.000000	9.737238
SCS_1_5MINUTE	23.083333	9.751104
SCS_1_5MINUTE	23.166667	9.764918
SCS_1_5MINUTE	23.250000	9.778682
SCS_1_5MINUTE	23.333333	9.792394
SCS_1_5MINUTE	23.416667	9.806057
SCS_1_5MINUTE	23.500000	9.819670
SCS_1_5MINUTE	23.583333	9.833234
SCS_1_5MINUTE	23.666667	9.846749
SCS_1_5MINUTE	23.750000	9.860216
SCS_1_5MINUTE	23.833333	9.873636
SCS_1_5MINUTE	23.916667	9.887008
SCS_1_5MINUTE	24.000000	9.900334

SCS_1_1MINUTE	0.016667	0.000000
SCS_1_1MINUTE	0.866667	0.000000
SCS_1_1MINUTE	0.883333	0.000053
SCS_1_1MINUTE	0.900000	0.003475
SCS_1_1MINUTE	0.916667	0.006900
SCS_1_1MINUTE	0.933333	0.010329
SCS_1_1MINUTE	0.950000	0.013762
SCS_1_1MINUTE	0.966667	0.017199
SCS_1_1MINUTE	0.983333	0.020639
SCS_1_1MINUTE	1.000000	0.024083
SCS_1_1MINUTE	1.016667	0.027530
SCS_1_1MINUTE	1.033333	0.030982
SCS_1_1MINUTE	1.050000	0.034437
SCS_1_1MINUTE	1.066667	0.037896
SCS_1_1MINUTE	1.083333	0.041358
SCS_1_1MINUTE	1.100000	0.044825
SCS_1_1MINUTE	1.116667	0.048295
SCS_1_1MINUTE	1.133333	0.051769
SCS_1_1MINUTE	1.150000	0.055247
SCS_1_1MINUTE	1.166667	0.058729
SCS_1_1MINUTE	1.183333	0.062214
SCS_1_1MINUTE	1.200000	0.065704
SCS_1_1MINUTE	1.216667	0.069197
SCS_1_1MINUTE	1.233333	0.072694
SCS_1_1MINUTE	1.250000	0.076195
SCS_1_1MINUTE	1.266667	0.079700
SCS_1_1MINUTE	1.283333	0.083209
SCS_1_1MINUTE	1.300000	0.086722
SCS_1_1MINUTE	1.316667	0.090239
SCS_1_1MINUTE	1.333333	0.093760
SCS_1_1MINUTE	1.350000	0.097284
SCS_1_1MINUTE	1.366667	0.100813
SCS_1_1MINUTE	1.383333	0.104346
SCS_1_1MINUTE	1.400000	0.107882
SCS_1_1MINUTE	1.416667	0.111423
SCS_1_1MINUTE	1.433333	0.114968
SCS_1_1MINUTE	1.450000	0.118516
SCS_1_1MINUTE	1.466667	0.122069
SCS_1_1MINUTE	1.483333	0.125626
SCS_1_1MINUTE	1.500000	0.129187
SCS_1_1MINUTE	1.516667	0.132752
SCS_1_1MINUTE	1.533333	0.136321
SCS_1_1MINUTE	1.550000	0.139894
SCS_1_1MINUTE	1.566667	0.143472
SCS_1_1MINUTE	1.583333	0.147053
SCS_1_1MINUTE	1.600000	0.150639
SCS_1_1MINUTE	1.616667	0.154229
SCS_1_1MINUTE	1.633333	0.157823
SCS_1_1MINUTE	1.650000	0.161421
SCS_1_1MINUTE	1.666667	0.165023
SCS_1_1MINUTE	1.683333	0.168630
SCS_1_1MINUTE	1.700000	0.172241
SCS_1_1MINUTE	1.716667	0.175856
SCS_1_1MINUTE	1.733333	0.179475
SCS_1_1MINUTE	1.750000	0.183099
SCS_1_1MINUTE	1.766667	0.186727
SCS_1_1MINUTE	1.783333	0.190359
SCS_1_1MINUTE	1.800000	0.193995
SCS_1_1MINUTE	1.816667	0.197636
SCS_1_1MINUTE	1.833333	0.201281
SCS_1_1MINUTE	1.850000	0.204931
SCS_1_1MINUTE	1.866667	0.208585
SCS_1_1MINUTE	1.883333	0.212243
SCS_1_1MINUTE	1.900000	0.215906
SCS_1_1MINUTE	1.916667	0.219573
SCS_1_1MINUTE	1.933333	0.223245
SCS_1_1MINUTE	1.950000	0.226921
SCS_1_1MINUTE	1.966667	0.230601
SCS_1_1MINUTE	1.983333	0.234286
SCS_1_1MINUTE	2.000000	0.237975
SCS_1_1MINUTE	2.016667	0.241669
SCS_1_1MINUTE	2.033333	0.245368
SCS_1_1MINUTE	2.050000	0.249071
SCS_1_1MINUTE	2.066667	0.252778
SCS_1_1MINUTE	2.083333	0.256490
SCS_1_1MINUTE	2.100000	0.260207
SCS_1_1MINUTE	2.116667	0.263928
SCS_1_1MINUTE	2.133333	0.267654
SCS_1_1MINUTE	2.150000	0.271385
SCS_1_1MINUTE	2.166667	0.275120
SCS_1_1MINUTE	2.183333	0.278859
SCS_1_1MINUTE	2.200000	0.282604
SCS_1_1MINUTE	2.216667	0.286353
SCS_1_1MINUTE	2.233333	0.290107
SCS_1_1MINUTE	2.250000	0.293865
SCS_1_1MINUTE	2.266667	0.297629
SCS_1_1MINUTE	2.283333	0.301397
SCS_1_1MINUTE	2.300000	0.305169
SCS_1_1MINUTE	2.316667	0.308947
SCS_1_1MINUTE	2.333333	0.312729
SCS_1_1MINUTE	2.350000	0.316517
SCS_1_1MINUTE	2.366667	0.320309
SCS_1_1MINUTE	2.383333	0.324106
SCS_1_1MINUTE	2.400000	0.327907
SCS_1_1MINUTE	2.416667	0.331714
SCS_1_1MINUTE	2.433333	0.335525
SCS_1_1MINUTE	2.450000	0.339342
SCS_1_1MINUTE	2.466667	0.343163
SCS_1_1MINUTE	2.483333	0.346990
SCS_1_1MINUTE	2.500000	0.350821
SCS_1_1MINUTE	2.516667	0.354657
SCS_1_1MINUTE	2.533333	0.358498
SCS_1_1MINUTE	2.550000	0.362345
SCS_1_1MINUTE	2.566667	0.366196
SCS_1_1MINUTE	2.583333	0.370052
SCS_1_1MINUTE	2.600000	0.373914
SCS_1_1MINUTE	2.616667	0.377780
SCS_1_1MINUTE	2.633333	0.381652
SCS_1_1MINUTE	2.650000	0.385529
SCS_1_1MINUTE	2.666667	0.389411
SCS_1_1MINUTE	2.683333	0.393298
SCS_1_1MINUTE	2.700000	0.397190
SCS_1_1MINUTE	2.716667	0.401088
SCS_1_1MINUTE	2.733333	0.404991
SCS_1_1MINUTE	2.750000	0.408899
SCS_1_1MINUTE	2.766667	0.412812
SCS_1_1MINUTE	2.783333	0.416730
SCS_1_1MINUTE	2.800000	0.420654
SCS_1_1MINUTE	2.816667	0.424583
SCS_1_1MINUTE	2.833333	0.428518
SCS_1_1MINUTE	2.850000	0.432458
SCS_1_1MINUTE	2.866667	0.436403
SCS_1_1MINUTE	2.883333	0.440354
SCS_1_1MINUTE	2.900000	0.444310
SCS_1_1MINUTE	2.916667	0.448271
SCS_1_1MINUTE	2.933333	0.452238
SCS_1_1MINUTE	2.950000	0.456210
SCS_1_1MINUTE	2.966667	0.460188
SCS_1_1MINUTE	2.983333	0.464172
SCS_1_1MINUTE	3.000000	0.468161
SCS_1_1MINUTE	3.016667	0.472155
SCS_1_1MINUTE	3.033333	0.476155
SCS_1_1MINUTE	3.050000	0.480161
SCS_1_1MINUTE	3.066667	0.484173
SCS_1_1MINUTE	3.083333	0.488190
SCS_1_1MINUTE	3.100000	0.492212
SCS_1_1MINUTE	3.116667	0.496241
SCS_1_1MINUTE	3.133333	0.500275
SCS_1_1MINUTE	3.150000	0.504314
SCS_1_1MINUTE	3.166667	0.508360
SCS_1_1MINUTE	3.183333	0.512411
SCS_1_1MINUTE	3.200000	0.516469
SCS_1_1MINUTE	3.216667	0.520532
SCS_1_1MINUTE	3.233333	0.524600
SCS_1_1MINUTE	3.250000	0.528675
SCS_1_1MINUTE	3.266667	0.532756
SCS_1_1MINUTE	3.283333	0.536842
SCS_1_1MINUTE	3.300000	0.540935
SCS_1_1MINUTE	3.316667	0.545033
SCS_1_1MINUTE	3.333333	0.549137
SCS_1_1MINUTE	3.350000	0.553248
SCS_1_1MINUTE	3.366667	0.557364
SCS_1_1MINUTE	3.383333	0.561487
SCS_1_1MINUTE	3.400000	0.565615
SCS_1_1MINUTE	3.416667	0.569750
SCS_1_1MINUTE	3.433333	0.573891
SCS_1_1MINUTE	3.450000	0.578038
SCS_1_1MINUTE	3.466667	0.582191
SCS_1_1MINUTE	3.483333	0.586350
SCS_1_1MINUTE	3.500000	0.590516
SCS_1_1MINUTE	3.516667	0.594688
SCS_1_1MINUTE	3.533333	0.598866
SCS_1_1MINUTE	3.550000	0.603050
SCS_1_1MINUTE	3.566667	0.607241
SCS_1_1MINUTE	3.583333	0.611438
SCS_1_1MINUTE	3.600000	0.615642
SCS_1_1MINUTE	3.616667	0.619852
SCS_1_1MINUTE	3.633333	0.624068
SCS_1_1MINUTE	3.650000	0.628291
SCS_1_1MINUTE	3.666667	0.632520
SCS_1_1MINUTE	3.683333	0.636756
SCS_1_1MINUTE	3.700000	0.640998
SCS_1_1MINUTE	3.716667	0.645247
SCS_1_1MINUTE	3.733333	0.649503
SCS_1_1MINUTE	3.750000	0.653765
SCS_1_1MINUTE	3.766667	0.658034
SCS_1_1MINUTE	3.783333	0.662309
SCS_1_1MINUTE	3.800000	0.666592
SCS_1_1MINUTE	3.816667	0.670881
SCS_1_1MINUTE	3.833333	0.675176
SCS_1_1MINUTE	3.850000	0.679479
SCS_1_1MINUTE	3.866667	0.683788
SCS_1_1MINUTE	3.883333	0.688105
SCS_1_1MINUTE	3.900000	0.692428
SCS_1_1MINUTE	3.916667	0.696758
SCS_1_1MINUTE	3.933333	0.701095
SCS_1_1MINUTE	3.950000	0.705439
SCS_1_1MINUTE	3.966667	0.709790
SCS_1_1MINUTE	3.983333	0.714148
SCS_1_1MINUTE	4.000000	0.718513
SCS_1_1MINUTE	4.016667	0.722885
SCS_1_1MINUTE	4.033333	0.727265
SCS_1_1MINUTE	4.050000	0.731651
SCS_1_1MINUTE	4.066667	0.736045
SCS_1_1MINUTE	4.083333	0.740446
SCS_1_1MINUTE	4.100000	0.744854
SCS_1_1MINUTE	4.116667	0.749269
SCS_1_1MINUTE	4.133333	0.753692
SCS_1_1MINUTE	4.150000	0.758122
SCS_1_1MINUTE	4.166667	0.762560
SCS_1_1MINUTE	4.183333	0.767005
SCS_1_1MINUTE	4.200000	0.771457
SCS_1_1MINUTE	4.216667	0.775917
SCS_1_1MINUTE	4.233333	0.780385
SCS_1_1MINUTE	4.250000	0.784860
SCS_1_1MINUTE	4.266667	0.789343
SCS_1_1MINUTE	4.283333	0.793833
SCS_1_1MINUTE	4.300000	0.798331
SCS_1_1MINUTE	4.316667	0.802836
SCS_1_1MINUTE	4.333333	0.807350
SCS_1_1MINUTE	4.350000	0.811871
SCS_1_1MINUTE	4.366667	0.816400
SCS_1_1MINUTE	4.383333	0.820937
SCS_1_1MINUTE	4.400000	0.825482
SCS_1_1MINUTE	4.416667	0.830034
SCS_1_1MINUTE	4.433333	0.834595
SCS_1_1MINUTE	4.450000	0.839163
SCS_1_1MINUTE	4.466667	0.843740
SCS_1_1MINUTE	4.483333	0.848325
SCS_1_1MINUTE	4.500000	0.852918
SCS_1_1MINUTE	4.516667	0.857519
SCS_1_1MINUTE	4.533333	0.862128
SCS_1_1MINUTE	4.550000	0.866745
SCS_1_1MINUTE	4.566667	0.871371
SCS_1_1MINUTE	4.583333	0.876005
SCS_1_1MINUTE	4.600000	0.880647
SCS_1_1MINUTE	4.616667	0.885298
SCS_1_1MINUTE	4.633333	0.889957
SCS_1_1MINUTE	4.650000	0.894625
SCS_1_1MINUTE	4.666667	0.899301
SCS_1_1MINUTE	4.683333	0.903986
SCS_1_1MINUTE	4.700000	0.908679
SCS_1_1MINUTE	4.716667	0.913381
SCS_1_1MINUTE	4.733333	0.918092
SCS_1_1MINUTE	4.750000	0.922811
SCS_1_1MINUTE	4.766667	0.927539
SCS_1_1MINUTE	4.783333	0.932276
SCS_1_1MINUTE	4.800000	0.937022
SCS_1_1MINUTE	4.816667	0.941777
SCS_1_1MINUTE	4.833333	0.946541
SCS_1_1MINUTE	4.850000	0.951313
SCS_1_1MINUTE	4.866667	0.956095
SCS_1_1MINUTE	4.883333	0.960886
SCS_1_1MINUTE	4.900000	0.965686
SCS_1_1MINUTE	4.916667	0.970495
SCS_1_1MINUTE	4.933333	0.975314
SCS_1_1MINUTE	4.950000	0.980141
SCS_1_1MINUTE	4.966667	0.984978
SCS_1_1MINUTE	4.983333	0.989825
SCS_1_1MINUTE	5.000000	0.994681
SCS_1_1MINUTE	5.016667	0.999546
SCS_1_1MINUTE	5.033333	1.004421
SCS_1_1MINUTE	5.050000	1.009306