[OPTIONS]
;Option and Files Scenario Set: FLOW_TEST
FLOW_UNITS	LPS
INFILTRATION	HORTON
FLOW_ROUTING	DYNWAVE
ALLOW_PONDING	NO
DRY_DAYS	5.000000
SKIP_STEADY_STATE 	NO
IGNORE_RAINFALL	NO
IGNORE_SNOWMELT	NO
IGNORE_GROUNDWATER	NO
IGNORE_QUALITY	NO
FORCE_MAIN_EQUATION	H-W
LINK_OFFSETS	DEPTH
MIN_SLOPE	0.000000
START_DATE	01/01/2002
START_TIME	20:00
END_DATE	01/02/2002
END_TIME	06:00
REPORT_START_DATE	01/02/2002
REPORT_START_TIME	00:00
SWEEP_START	01/01
SWEEP_END	12/31
WET_STEP	01:00:00
DRY_STEP	23:00:00
ROUTING_STEP	0
REPORT_STEP	00:00:30
INERTIAL_DAMPING	NONE
VARIABLE_STEP	0.500000
MINIMUM_STEP	0.5
LENGTHENING_STEP	10
MIN_SURFAREA	0.000000
NORMAL_FLOW_LIMITED	BOTH
MAX_TRIALS	8
HEAD_TOLERANCE	0.000100

[FILES]

[RAINGAGES]

[HYDROGRAPHS]

[TEMPERATURE]

[ADJUSTMENTS]

[SUBCATCHMENTS]

[SUBAREAS]

[INFILTRATION]

[AQUIFERS]

[GROUNDWATER]

[GWF]

[SNOWPACKS]

[JUNCTIONS]
1031	0.114000	1.746000	0.000000	0.000000	0.000000
; 15/6
10452	-0.346000	2.966000	0.000000	0.000000	0.000000
; 11/6
10453	-0.850000	1.725000	0.000000	0.000000	0.000000
; 10/6
10454	-1.000000	1.433000	0.000000	0.000000	0.000000
; 16/6
10514	-0.170000	2.750000	0.000000	0.000000	0.000000
; 13/6
10516	-0.555000	2.655000	0.000000	0.000000	0.000000
; 12/6
10517	-0.708000	2.578000	0.000000	0.000000	0.000000
; 14/6
10518	-0.443000	3.193000	0.000000	0.000000	0.000000
10536	5.780000	1.890000	0.000000	0.000000	0.000000
10537	3.000000	3.210000	0.000000	0.000000	0.000000
10538	2.910000	2.960000	0.000000	0.000000	0.000000
10539	2.420000	1.310000	0.000000	0.000000	0.000000
10575	-2.200000	4.560000	0.000000	0.000000	0.000000
10576	-1.986000	4.786000	0.000000	0.000000	0.000000
10577	-1.700000	4.660000	0.000000	0.000000	0.000000
10578	-1.450000	4.480000	0.000000	0.000000	0.000000
10579	-1.200000	3.930000	0.000000	0.000000	0.000000
; 5/9
10597	-0.910000	3.730000	0.000000	0.000000	0.000000
; 6/9
10609	-0.580000	3.430000	0.000000	0.000000	0.000000
; 7/9
10613	-0.270000	3.090000	0.000000	0.000000	0.000000
10641	-2.110000	4.450000	0.000000	0.000000	0.000000
10662	-2.580000	5.280000	0.000000	0.000000	0.000000
10665	-1.500000	4.000000	0.000000	0.000000	0.000000
10666	-1.250000	2.880000	0.000000	0.000000	0.000000
10667	-1.080000	2.970000	0.000000	0.000000	0.000000
10668	-2.960000	5.960000	0.000000	0.000000	0.000000
; 2/26
10669	-3.180000	5.730000	0.000000	0.000000	0.000000
; 1/26
10670	-3.330000	6.190000	0.000000	0.000000	0.000000
10671	-1.240000	3.990000	0.000000	0.000000	0.000000
10715	-0.040000	2.600000	0.000000	0.000000	0.000000
10716	-0.020000	2.040000	0.000000	0.000000	0.000000
10717	0.025000	3.335000	0.000000	0.000000	0.000000
10718	0.185000	2.065000	0.000000	0.000000	0.000000
10719	0.355000	1.405000	0.000000	0.000000	0.000000
10720	0.470000	1.670000	0.000000	0.000000	0.000000
10721	0.760000	1.040000	0.000000	0.000000	0.000000
10722	0.995000	0.975000	0.000000	0.000000	0.000000
10723	2.765000	1.275000	0.000000	0.000000	0.000000
10724	18.805000	4.485000	0.000000	0.000000	0.000000
10725	33.870000	3.160000	0.000000	0.000000	0.000000
10726	37.790000	1.480000	0.000000	0.000000	0.000000
10727	38.470000	2.610000	0.000000	0.000000	0.000000
10728	39.285000	2.425000	0.000000	0.000000	0.000000
10732	41.380000	4.500000	0.000000	0.000000	0.000000
10733	48.975000	4.495000	0.000000	0.000000	0.000000
10759	1.640000	1.530000	0.000000	0.000000	0.000000
10770	31.060000	2.190000	0.000000	0.000000	0.000000
10772	30.760000	2.450000	0.000000	0.000000	0.000000
10773	23.480000	1.970000	0.000000	0.000000	0.000000
10775	21.360000	3.010000	0.000000	0.000000	0.000000
10776	21.310000	2.500000	0.000000	0.000000	0.000000
10789	21.650000	1.790000	0.000000	0.000000	0.000000
; 3/33
10883	34.330000	1.290000	0.000000	0.000000	0.000000
; 2/33
10884	33.020000	1.240000	0.000000	0.000000	0.000000
; 1/33
10885	31.770000	2.150000	0.000000	0.000000	0.000000
; UKN
10886	31.250000	2.760000	0.000000	0.000000	0.000000
; S1/9
10902	123.590000	1.560000	0.000000	0.000000	0.000000
; S1/8
10903	123.065000	1.355000	0.000000	0.000000	0.000000
; S1/7
10904	122.615000	2.635000	0.000000	0.000000	0.000000
; S1/6
10905	121.780000	1.420000	0.000000	0.000000	0.000000
; S1/3
10912	117.735000	1.850000	0.000000	0.000000	0.000000
; S1/4
10913	118.220000	2.180000	0.000000	0.000000	0.000000
; S1/2
10914	116.005000	2.510000	0.000000	0.000000	0.000000
; S1/1
10915	111.820000	2.244000	0.000000	0.000000	0.000000
; S1/5
10916	118.660000	1.730000	0.000000	0.000000	0.000000
; 1/11
10920	59.220000	2.200000	0.000000	0.000000	0.000000
; 2/11
10921	60.200000	2.120000	0.000000	0.000000	0.000000
10927	66.160000	2.090000	0.000000	0.000000	0.000000
10928	66.010000	1.780000	0.000000	0.000000	0.000000
10929	63.780000	1.350000	0.000000	0.000000	0.000000
10930	62.720000	2.740000	0.000000	0.000000	0.000000
10931	62.370000	1.860000	0.000000	0.000000	0.000000
10932	59.250000	1.040000	0.000000	0.000000	0.000000
10933	56.790000	3.020000	0.000000	0.000000	0.000000
10937	57.240000	1.610000	0.000000	0.000000	0.000000
10938	57.710000	1.850000	0.000000	0.000000	0.000000
10939	60.310000	1.890000	0.000000	0.000000	0.000000
10940	61.990000	2.300000	0.000000	0.000000	0.000000
10941	62.310000	1.640000	0.000000	0.000000	0.000000
10993	-1.930000	4.430000	0.000000	0.000000	0.000000
10994	-1.640000	4.140000	0.000000	0.000000	0.000000
11017	2.220000	1.350000	0.000000	0.000000	0.000000
; 5/1
11024	2.070000	2.930000	0.000000	0.000000	0.000000
; 4/1
11025	1.830000	1.770000	0.000000	0.000000	0.000000
; 3/1
11026	1.550000	0.950000	0.000000	0.000000	0.000000
; 2/1
11027	1.250000	1.450000	0.000000	0.000000	0.000000
11031	1.900000	0.730000	0.000000	0.000000	0.000000
11102	-2.110000	4.610000	0.000000	0.000000	0.000000
11103	-2.180000	4.680000	0.000000	0.000000	0.000000
11104	-0.500000	3.500000	0.000000	0.000000	0.000000
11105	-1.930000	4.430000	0.000000	0.000000	0.000000
11106	-0.530000	3.030000	0.000000	0.000000	0.000000
11107	-0.300000	2.800000	0.000000	0.000000	0.000000
11108	-0.080000	2.580000	0.000000	0.000000	0.000000
11120	-2.500000	5.000000	0.000000	0.000000	0.000000
11154	-0.300000	2.940000	0.000000	0.000000	0.000000
; 4/33
11194	34.910000	0.910000	0.000000	0.000000	0.000000
11201	-4.190000	7.940000	0.000000	0.000000	0.000000
11217	-3.545000	6.215000	0.000000	0.000000	0.000000
11219	-3.690000	5.770000	0.000000	0.000000	0.000000
11220	-4.025000	7.755000	0.000000	0.000000	0.000000
11234	131.500000	0.930000	0.000000	0.000000	0.000000
11235	128.820000	0.750000	0.000000	0.000000	0.000000
11236	125.085000	1.665000	0.000000	0.000000	0.000000
11237	121.840000	1.360000	0.000000	0.000000	0.000000
11273	22.120000	0.440000	0.000000	0.000000	0.000000
; 2/1
11283	-2.035000	4.435000	0.000000	0.000000	0.000000
; 3/1
11284	-1.975000	4.085000	0.000000	0.000000	0.000000
; 4/1
11285	-1.955000	4.955000	0.000000	0.000000	0.000000
; 5/1
11286	-1.870000	4.870000	0.000000	0.000000	0.000000
; 1/9
11287	-1.660000	4.640000	0.000000	0.000000	0.000000
; 2/9
11294	-1.500000	4.130000	0.000000	0.000000	0.000000
; 3/9
11295	-1.295000	4.035000	0.000000	0.000000	0.000000
; 4/9
11296	-1.140000	3.890000	0.000000	0.000000	0.000000
; 2/TMP
11331	-1.250000	2.750000	0.000000	0.000000	0.000000
; 5/1
11339	1.190000	0.939000	0.000000	0.000000	0.000000
; 4/1
11340	-0.705000	3.385000	0.000000	0.000000	0.000000
; 5/1
11341	-0.765000	4.450000	0.000000	0.000000	0.000000
; 6/1
11342	-0.955000	3.660000	0.000000	0.000000	0.000000
; 7/1
11343	-1.180000	3.880000	0.000000	0.000000	0.000000
; 8/1
11344	-1.370000	4.255000	0.000000	0.000000	0.000000
; 9/1
11345	-1.455000	4.070000	0.000000	0.000000	0.000000
; 10/1
11346	-1.496000	4.136000	0.000000	0.000000	0.000000
11364	8.970000	1.720000	0.000000	0.000000	0.000000
11366	4.670000	3.030000	0.000000	0.000000	0.000000
11367	3.320000	1.990000	0.000000	0.000000	0.000000
11374	2.430000	2.500000	0.000000	0.000000	0.000000
11375	2.060000	3.310000	0.000000	0.000000	0.000000
11376	1.750000	2.580000	0.000000	0.000000	0.000000
11377	0.360000	2.430000	0.000000	0.000000	0.000000
11378	0.290000	2.610000	0.000000	0.000000	0.000000
11381	0.640000	2.490000	0.000000	0.000000	0.000000
; 40/5A
11388	8.010000	1.980000	0.000000	0.000000	0.000000
; S1/6
11389	-0.310000	2.850000	0.000000	0.000000	0.000000
; S/8
11390	-0.516000	3.195000	0.000000	0.000000	0.000000
; S/9
11391	-0.065000	2.768000	0.000000	0.000000	0.000000
; UKN
11393	-0.045000	2.995000	0.000000	0.000000	0.000000
; UKN
11394	-0.140000	3.040000	0.000000	0.000000	0.000000
; S1/7
11395	-0.550000	3.170000	0.000000	0.000000	0.000000
; EE/3A
11492	1.100000	0.900000	0.000000	0.000000	0.000000
; 1/1
11497	-1.440000	3.510000	0.000000	0.000000	0.000000
; 13/1
11545	-0.622000	0.622000	0.000000	0.000000	0.000000
; 12A/1
11556	2.215000	0.900000	0.000000	0.000000	0.000000
; 11/1
11557	-0.910000	3.910000	0.000000	0.000000	0.000000
; 12/1
11561	-0.838000	3.838000	0.000000	0.000000	0.000000
11702	-2.384000	4.294000	0.000000	0.000000	0.000000
11703	-1.812000	3.732000	0.000000	0.000000	0.000000
11704	-1.533000	4.033000	0.000000	0.000000	0.000000
11705	1.230000	1.270000	0.000000	0.000000	0.000000
; 6/1
11821	-1.600000	4.010000	0.000000	0.000000	0.000000
; 8/1
11826	-1.360000	4.140000	0.000000	0.000000	0.000000
; 7/1
11827	-1.480000	4.080000	0.000000	0.000000	0.000000
; 9/1
11830	-1.250000	4.100000	0.000000	0.000000	0.000000
; 10/1
11831	-1.070000	4.070000	0.000000	0.000000	0.000000
; 1/10
11999	11.066000	2.704000	0.000000	0.000000	0.000000
; 2/27
12017	0.650000	2.001000	0.000000	0.000000	0.000000
; 1/27
12018	0.350000	2.150000	0.000000	0.000000	0.000000
; 2/1
12019	-0.300000	2.800000	0.000000	0.000000	0.000000
; 3/1
12020	0.000000	2.500000	0.000000	0.000000	0.000000
; 1/1
12023	-0.700000	3.200000	0.000000	0.000000	0.000000
12147	39.150000	3.240000	0.000000	0.000000	0.000000
12148	37.220000	2.530000	0.000000	0.000000	0.000000
12149	37.450000	2.400000	0.000000	0.000000	0.000000
12150	39.830000	2.170000	0.000000	0.000000	0.000000
12151	41.800000	2.650000	0.000000	0.000000	0.000000
12152	43.550000	4.060000	0.000000	0.000000	0.000000
12153	46.460000	3.790000	0.000000	0.000000	0.000000
12154	49.210000	3.540000	0.000000	0.000000	0.000000
12155	54.600000	1.050000	0.000000	0.000000	0.000000
12156	55.120000	4.080000	0.000000	0.000000	0.000000
12208	22.235000	3.315000	0.000000	0.000000	0.000000
12209	21.160000	4.840000	0.000000	0.000000	0.000000
12210	20.200000	2.240000	0.000000	0.000000	0.000000
12211	18.800000	2.820000	0.000000	0.000000	0.000000
12212	16.890000	2.900000	0.000000	0.000000	0.000000
12213	15.740000	2.580000	0.000000	0.000000	0.000000
12214	15.400000	3.090000	0.000000	0.000000	0.000000
12215	5.940000	5.610000	0.000000	0.000000	0.000000
; 1/1
12262	10.982000	3.768000	0.000000	0.000000	0.000000
12266	-2.000000	3.690000	0.000000	0.000000	0.000000
12267	-2.030000	3.920000	0.000000	0.000000	0.000000
12268	-1.830000	3.450000	0.000000	0.000000	0.000000
12269	-1.500000	4.310000	0.000000	0.000000	0.000000
12272	-1.110000	3.660000	0.000000	0.000000	0.000000
12281	-0.420000	3.270000	0.000000	0.000000	0.000000
12283	-0.090000	2.700000	0.000000	0.000000	0.000000
12312	0.150000	2.550000	0.000000	0.000000	0.000000
12324	-0.250000	2.050000	0.000000	0.000000	0.000000
12329	-0.670000	3.550000	0.000000	0.000000	0.000000
12331	-1.270000	4.030000	0.000000	0.000000	0.000000
12336	0.060000	2.690000	0.000000	0.000000	0.000000
; 1/A6
12564	-2.350000	4.205000	0.000000	0.000000	0.000000
12769	79.620000	2.230000	0.000000	0.000000	0.000000
12770	80.170000	1.620000	0.000000	0.000000	0.000000
12771	83.400000	2.850000	0.000000	0.000000	0.000000
12772	84.280000	3.290000	0.000000	0.000000	0.000000
12773	86.380000	2.250000	0.000000	0.000000	0.000000
12774	88.220000	1.920000	0.000000	0.000000	0.000000
12775	89.260000	2.310000	0.000000	0.000000	0.000000
12776	91.450000	1.910000	0.000000	0.000000	0.000000
12778	107.400000	1.650000	0.000000	0.000000	0.000000
12779	109.200000	1.800000	0.000000	0.000000	0.000000
12780	87.700000	2.980000	0.000000	0.000000	0.000000
12982	-1.190000	4.560000	0.000000	0.000000	0.000000
12984	-1.090000	4.860000	0.000000	0.000000	0.000000
12985	0.180000	3.320000	0.000000	0.000000	0.000000
12988	0.430000	3.170000	0.000000	0.000000	0.000000
13013	-1.510000	3.410000	0.000000	0.000000	0.000000
13014	-1.880000	3.730000	0.000000	0.000000	0.000000
; 14/1
13067	9.220000	2.180000	0.000000	0.000000	0.000000
; 13/1
13068	5.050000	1.050000	0.000000	0.000000	0.000000
; 12/1
13069	3.560000	0.700000	0.000000	0.000000	0.000000
; 10/1
13070	3.160000	1.070000	0.000000	0.000000	0.000000
; 9/1
13071	3.020000	1.110000	0.000000	0.000000	0.000000
13151	119.285000	0.855000	0.000000	0.000000	0.000000
13321_1	4.250000	0.250000	0.000000	200.000000	0.000000
13329_1	1.500000	0.250000	0.000000	200.000000	0.000000
13370_1	130.000000	0.100000	0.000000	200.000000	0.000000
13391_1	2.500000	0.250000	0.000000	200.000000	0.000000
13396_1	1.800000	0.250000	0.000000	200.000000	0.000000
; CL/1B
13449	-1.291000	3.230000	0.000000	0.000000	0.000000
13450	-0.500000	2.500000	0.000000	0.000000	0.000000
; S1/1
13452	-1.110000	2.610000	0.000000	0.000000	0.000000
13487	1.313000	0.687000	0.000000	0.000000	0.000000
13488	1.489000	0.511000	0.000000	0.000000	0.000000
13489	1.149000	0.851000	0.000000	0.000000	0.000000
13490	1.119000	0.881000	0.000000	0.000000	0.000000
; BC/1C
13491	-0.250000	4.659000	0.000000	0.000000	0.000000
13492	1.700000	2.800000	0.000000	0.000000	0.000000
; CA/15
13494	-2.850000	4.837000	0.000000	0.000000	0.000000
13495	1.980000	2.520000	0.000000	0.000000	0.000000
; BC/1B
13496	-0.170000	4.460000	0.000000	0.000000	0.000000
13572	-1.500000	3.250000	0.000000	0.000000	0.000000
13573	-0.480000	2.920000	0.000000	0.000000	0.000000
13574	-0.300000	3.550000	0.000000	0.000000	0.000000
13661	0.000000	2.790000	0.000000	0.000000	0.000000
; SCV5
13674	2.364981	0.500019	0.000000	200.000000	0.000000
; SCV7
13675	0.100000	0.500000	0.000000	200.000000	0.000000
; SCV1
13676	-0.150000	0.500000	0.000000	200.000000	0.000000
; SCV2
13677	0.596640	0.500360	0.000000	200.000000	0.000000
; SCV3
13678	1.489609	0.500391	0.000000	200.000000	0.000000
; SCV4
13679	1.850000	0.500000	0.000000	200.000000	0.000000
; SCV6
13680	0.350000	0.500000	0.000000	200.000000	0.000000
; SCV1
13681	2.100000	0.500000	0.000000	200.000000	0.000000
; SCV2
13682	1.879245	0.499755	0.000000	200.000000	0.000000
; SCV1
13683	22.330534	0.500466	0.000000	200.000000	0.000000
; SCV2
13684	19.631174	0.499826	0.000000	200.000000	0.000000
; SCV3
13685	18.595898	0.500102	0.000000	200.000000	0.000000
; SPS 2005
13698	1.236000	0.600000	0.300000	200.000000	0.000000
; SPS 2041
13699	1.792000	0.600000	0.300000	200.000000	0.000000
; SPS 2016
13700	1.150000	0.600000	0.300000	200.000000	0.000000
; SPS 2017
13701	1.900000	0.600000	0.300000	200.000000	0.000000
; SPS 2006
13703	0.900000	0.600000	0.300000	200.000000	0.000000
; SPS 2008
13704	0.150000	0.600000	0.300000	200.000000	0.000000
; SPS 2009
13705	1.650000	0.600000	0.300000	200.000000	0.000000
; SPS 2007
13706	0.852000	0.600000	0.300000	200.000000	0.000000
; SPS 2029
13707	1.797000	0.600000	0.300000	200.000000	0.000000
; SPS 2028
13708	1.900000	0.600000	0.300000	200.000000	0.000000
; SPS 2015
13709	0.982000	0.600000	0.300000	200.000000	0.000000
; SPS 2023
13710	1.650000	0.600000	0.300000	200.000000	0.000000
; SPS 2022
13711	1.035000	0.600000	0.300000	200.000000	0.000000
; SPS 2001
13712	1.190000	0.600000	0.300000	200.000000	0.000000
; SPS 2004
13713	1.400000	0.600000	0.300000	200.000000	0.000000
; SPS 2010
13714	2.446000	0.600000	0.300000	200.000000	0.000000
; SPS 2012
13716	1.658000	0.600000	0.300000	200.000000	0.000000
; SPS 2032
13717	1.722000	0.600000	0.300000	200.000000	0.000000
; SPS 2035
13718	126.407000	0.600000	0.300000	200.000000	0.000000
; SPS 2043
13719	110.013000	0.600000	0.300000	200.000000	0.000000
; SPS 2031
13720	2.400000	0.600000	0.300000	200.000000	0.000000
; SPS 2025
13721	1.837000	0.600000	0.300000	200.000000	0.000000
; SPS 2019
13722	1.400000	0.600000	0.300000	200.000000	0.000000
; SPS 2020
13723	1.209000	0.600000	0.300000	200.000000	0.000000
; SPS 2024
13724	1.172000	0.600000	0.300000	200.000000	0.000000
; SPS 2018
13725	1.150000	0.600000	0.300000	200.000000	0.000000
; SPS 2034
13726	1.522000	0.600000	0.300000	200.000000	0.000000
; SPS 2030
13727	2.981000	0.600000	0.300000	200.000000	0.000000
; SPS 2027
13728	1.748000	0.600000	0.300000	200.000000	0.000000
; SPS 2026
13729	2.538000	0.600000	0.300000	200.000000	0.000000
; SPS 2040
13730	64.173000	0.600000	0.300000	200.000000	0.000000
; SPS 2014
13731	1.623000	0.600000	0.300000	200.000000	0.000000
; SPS 2011
13732	1.150000	0.600000	0.300000	200.000000	0.000000
; SPS 3021
13733	1.550000	0.600000	0.300000	200.000000	0.000000
; SPS 3029
13734	2.047000	0.600000	0.300000	200.000000	0.000000
; SPS 3028
13735	1.633000	1.867000	0.300000	200.000000	0.000000
; SPS 2036
13736	46.708000	0.600000	0.300000	200.000000	0.000000
; SPS 2037
13737	0.804000	0.600000	0.300000	200.000000	0.000000
; SPS 2039
13738	6.211000	0.600000	0.300000	200.000000	0.000000
; SPS 3033
13739	31.080000	0.600000	0.300000	200.000000	0.000000
; SPS 3008
13742	1.400000	0.600000	0.300000	200.000000	0.000000
13743	1.865000	0.400000	0.300000	200.000000	0.000000
; SPS 3009
13744	0.900000	0.600000	0.300000	200.000000	0.000000
; SPS 3011
13745	1.400000	0.600000	0.300000	200.000000	0.000000
13746	0.610000	1.290000	0.300000	200.000000	0.000000
; SPS 3017
13747	1.926000	0.600000	0.300000	200.000000	0.000000
; SPS 3024
13748	0.650000	0.600000	0.300000	200.000000	0.000000
; SPS 3023
13750	2.049000	0.600000	0.300000	200.000000	0.000000
; SPS 3022
13751	1.437000	0.600000	0.300000	200.000000	0.000000
; SPS 3005
13752	1.709000	0.600000	0.300000	200.000000	0.000000
; SPS 3030
13753	2.079000	0.600000	0.300000	200.000000	0.000000
; SPS 3018
13754	2.219000	0.600000	0.300000	200.000000	0.000000
; SPS 3020
13755	2.244000	0.600000	0.300000	200.000000	0.000000
; SPS 3004
13756	11.070000	0.600000	0.300000	200.000000	0.000000
; SPS 3002
13757	1.770000	0.600000	0.300000	200.000000	0.000000
; SPS 3003
13758	1.825000	0.600000	0.300000	200.000000	0.000000
; SPS 3012
13759	1.400000	0.600000	0.300000	200.000000	0.000000
; SPS 3019
13761	1.900000	0.600000	0.300000	200.000000	0.000000
; SPS 3001
13762	2.650000	0.600000	0.300000	200.000000	0.000000
; SPS 3034
13763	65.607000	0.600000	0.300000	200.000000	0.000000
; SPS 3006
13764	1.682000	0.600000	0.300000	200.000000	0.000000
; SPS 3016
13765	2.900000	0.600000	0.300000	200.000000	0.000000
; SPS 3015
13766	3.724000	0.600000	0.300000	200.000000	0.000000
; SPS 2044
13790	62.150000	0.600000	0.300000	200.000000	0.000000
13803_1	52.000000	0.100000	0.000000	200.000000	0.000000
; SPS 3026
13820	1.900000	0.600000	0.300000	100.000000	0.000000
; SPS 3038
13830	1.949000	0.600000	0.300000	200.000000	0.000000
; SPS 3035
13832	2.322000	0.600000	0.300000	200.000000	0.000000
; SPS 3025
13833	23.207000	0.600000	0.300000	200.000000	0.000000
; SPS 2038
13836	0.361000	0.600000	0.300000	200.000000	0.000000
; SPS 2045
13837	60.514000	0.600000	0.300000	200.000000	0.000000
; SPS 2013
13841	1.900000	0.600000	0.300000	200.000000	0.000000
; SPS 2047
13842	121.971000	0.600000	0.300000	200.000000	0.000000
; SPS 3027
13843	1.526000	0.600000	0.300000	200.000000	0.000000
; SPS 2048
13844	2.292000	0.600000	0.300000	200.000000	0.000000
; SPS 3007
13845	1.400000	0.600000	0.300000	200.000000	0.000000
; SPS 3036
13848	2.078000	0.600000	0.300000	200.000000	0.000000
; SPS 3031
13855	1.900000	0.600000	0.300000	200.000000	0.000000
; SPS 2050
13856	39.105000	0.600000	0.300000	200.000000	0.000000
; SPS 2033
13858	1.696000	0.600000	0.300000	200.000000	0.000000
; SPS 2021
13859	0.686000	0.600000	0.300000	200.000000	0.000000
13892	89.890000	0.350000	0.000000	200.000000	0.000000
; SPS 2003
13931	3.900000	0.600000	0.300000	200.000000	0.000000
13933	1.500000	0.250000	0.300000	200.000000	0.000000
; SPS 2046
13934	2.715000	0.600000	0.300000	200.000000	0.000000
; IV1
13940	-0.900000	0.500000	0.000000	200.000000	0.000000
; IV15
13942	0.300758	0.500242	0.000000	200.000000	0.000000
; IV13
13943	0.100000	0.500000	0.000000	200.000000	0.000000
; IV14
13944	0.100000	0.500000	0.000000	200.000000	0.000000
; IV11
13945	0.350000	0.500000	0.000000	200.000000	0.000000
; IV12
13946	0.487988	0.500012	0.000000	200.000000	0.000000
; IV9
13947	2.520606	0.500394	0.000000	200.000000	0.000000
; IV10
13948	1.849556	0.500444	0.000000	200.000000	0.000000
; IV7
13949	1.757159	0.499841	0.000000	200.000000	0.000000
; IV8
13950	1.850423	0.499577	0.000000	200.000000	0.000000
; IV6
13951	1.434794	0.500206	0.000000	200.000000	0.000000
; IV5
13952	1.488707	0.500293	0.000000	200.000000	0.000000
; IV4
13953	0.328643	0.500357	0.000000	200.000000	0.000000
; IV3
13954	0.760781	0.500219	0.000000	200.000000	0.000000
; IV1
13955	-0.150000	0.500000	0.000000	200.000000	0.000000
; IV2
13956	-0.598660	0.499660	0.000000	200.000000	0.000000
; 1V2
13957	2.350000	0.500000	0.000000	200.000000	0.000000
; 1V1
13958	2.350000	0.500000	0.000000	200.000000	0.000000
; IV1
13960	1.600000	0.500000	0.000000	200.000000	0.000000
; AV1
13978	22.758208	0.499792	0.000000	200.000000	0.000000
; AV2
13979	21.437787	0.500213	0.000000	200.000000	0.000000
; IV1
13980	1.600000	0.500000	0.000000	200.000000	0.000000
; IV1
13987	1.500000	0.500000	0.000000	200.000000	0.000000
; IV1
13988	1.600000	0.500000	0.000000	200.000000	0.000000
; IV1
13994	0.850000	0.500000	0.000000	200.000000	0.000000
; IV1
13995	0.850000	0.500000	0.000000	200.000000	0.000000
; IV2
14000	1.100000	0.500000	0.000000	200.000000	0.000000
; IV3
14001	0.500000	1.400000	0.000000	200.000000	0.000000
; IV4
14002	1.600000	0.500000	0.000000	200.000000	0.000000
; IV1
14004	2.100000	0.500000	0.000000	200.000000	0.000000
; IV3
14024	2.250000	0.900000	0.300000	200.000000	0.000000
; AV3
14035	0.850000	0.500000	0.000000	200.000000	0.000000
; AV2
14036	1.100000	0.500000	0.000000	200.000000	0.000000
; AV1
14037	0.850000	0.500000	0.000000	200.000000	0.000000
; AV1
14039	66.724558	0.500442	0.000000	200.000000	0.000000
; IV2
14040	2.971000	0.550000	0.300000	200.000000	0.000000
; IV3
14042	3.080534	0.500466	0.000000	200.000000	0.000000
; IV4
14043	3.199858	0.500142	0.000000	200.000000	0.000000
; IV1
14045	2.442485	0.499515	0.000000	200.000000	0.000000
; AV2
14115	1.636269	0.499731	0.000000	200.000000	0.000000
; IV2
14116	1.100000	0.500000	0.000000	200.000000	0.000000
; IV1
14117	1.100000	0.500000	0.000000	200.000000	0.000000
; AV1
14118	1.100000	0.500000	0.000000	200.000000	0.000000
; AV6
14119	0.762218	0.499782	0.000000	200.000000	0.000000
; AV5
14120	0.229715	0.500285	0.000000	200.000000	0.000000
; AV4
14121	0.227977	0.500023	0.000000	200.000000	0.000000
; AV3
14122	0.649535	0.500465	0.000000	200.000000	0.000000
; AV2
14123	0.208259	0.499741	0.000000	200.000000	0.000000
; AV10
14124	0.600000	0.500000	0.000000	200.000000	0.000000
; AV9
14125	-0.236931	0.499931	0.000000	200.000000	0.000000
; AV7
14127	1.573203	0.499797	0.000000	200.000000	0.000000
; AV11
14128	0.850000	0.500000	0.000000	200.000000	0.000000
; AV3
14129	0.942901	0.500099	0.000000	200.000000	0.000000
; AV13
14130	0.850000	0.500000	0.000000	200.000000	0.000000
; AV12
14131	1.670707	0.500293	0.000000	200.000000	0.000000
; AV2
14132	1.843624	0.500376	0.000000	200.000000	0.000000
; AV1
14133	1.250598	0.500401	0.000000	200.000000	0.000000
; IV2
14140	0.394293	0.499707	0.000000	200.000000	0.000000
; IV1
14142	0.600000	0.500000	0.000000	200.000000	0.000000
14143	99.850000	0.350000	0.000000	200.000000	0.000000
14144	102.950000	0.350000	0.000000	200.000000	0.000000
; IV1
14152	0.600000	0.500000	0.000000	200.000000	0.000000
; IV1
14163	1.850000	0.500000	0.000000	200.000000	0.000000
; IV4
14164	1.500000	1.000000	0.000000	200.000000	0.000000
; AV1
14177	6.850000	0.500000	0.000000	200.000000	0.000000
; IV1
14232	3.209109	0.499891	0.000000	200.000000	0.000000
; IV1
14234	1.600000	0.500000	0.000000	200.000000	0.000000
; AV1
14235	5.500689	0.500311	0.000000	200.000000	0.000000
; IV1
14983	1.100000	0.500000	0.000000	200.000000	0.000000
15041	0.450000	1.550000	0.000000	0.000000	0.000000
15068	0.900000	0.705000	0.000000	0.000000	0.000000
; SCV2
15451	0.350000	0.500000	0.000000	200.000000	0.000000
; UKN
15453	0.596862	0.500138	0.000000	200.000000	0.000000
; UKN
15462	1.444996	0.500004	0.000000	200.000000	0.000000
; UKN
15469	1.332016	0.499984	0.000000	200.000000	0.000000
; UKN
15470	0.600000	0.500000	0.000000	200.000000	0.000000
; UKN
15472	1.089525	0.500475	0.000000	200.000000	0.000000
; UKN
15475	2.100000	0.500000	0.000000	200.000000	0.000000
; AV1
15581	6.100000	0.500000	0.000000	200.000000	0.000000
; AV1
15601	3.226686	0.500314	0.000000	200.000000	0.000000
; SCV1
15902	0.696159	0.499841	0.000000	200.000000	0.000000
; AV1
15903	0.600000	0.500000	0.000000	200.000000	0.000000
16024_1	3.350000	0.150000	0.000000	200.000000	0.000000
16024_11	1.350000	0.150000	0.000000	200.000000	0.000000
16024_12	19.000000	0.150000	0.000000	200.000000	0.000000
16103	1.511000	0.489000	0.000000	0.000000	0.000000
; UKN
16121	1.600000	0.500000	0.000000	200.000000	0.000000
; UKN
16122	1.283277	0.499723	0.000000	200.000000	0.000000
; UKN
16141	0.850000	0.500000	0.000000	200.000000	0.000000
; UKN
16212	1.600000	0.500000	0.000000	200.000000	0.000000
; UKN
16213	1.850000	0.500000	0.000000	200.000000	0.000000
; 1/TMP
16541	-1.830000	3.380000	0.000000	0.000000	0.000000
; UKN
16621	1.329411	0.499589	0.000000	200.000000	0.000000
; UKN
16622	2.395185	0.499815	0.000000	200.000000	0.000000
; UKN
17203	1.075913	0.500087	0.000000	200.000000	0.000000
; UKN
17204	1.007545	0.500455	0.000000	200.000000	0.000000
; UKN
17207	0.655286	0.499714	0.000000	200.000000	0.000000
; IV1
17209	0.864342	0.499658	0.000000	200.000000	0.000000
; UKN
17223	1.073425	0.499575	0.000000	200.000000	0.000000
; UKN
17224	1.040385	0.499615	0.000000	200.000000	0.000000
; AV1
17227	1.350000	0.500000	0.000000	200.000000	0.000000
; AV2
17228	0.705575	0.500425	0.000000	200.000000	0.000000
; UKN
17443	4.600000	0.500000	0.000000	200.000000	0.000000
; UKN
17448	4.600000	0.500000	0.000000	200.000000	0.000000
; UKN
17451	4.863244	0.499756	0.000000	200.000000	0.000000
; 1/1
17569	-2.550000	4.150000	0.000000	0.000000	0.000000
; UKN
17805	0.759079	0.499921	0.000000	50.000000	0.000000
; UKN
17806	0.600000	0.500000	0.000000	50.000000	0.000000
; UKN
17846	1.063793	0.500207	0.000000	200.000000	0.000000
; UKN
17861	1.163583	0.500417	0.000000	200.000000	0.000000
; 2/B
17901	0.800000	2.500000	0.000000	0.000000	0.000000
; 1/B
17902	0.600000	2.400000	0.000000	0.000000	0.000000
; 1/A
17903	-1.250000	4.250000	0.000000	0.000000	0.000000
; 2/A
17904	-1.150000	4.150000	0.000000	0.000000	0.000000
; 3/A
17905	-1.000000	3.000000	0.000000	0.000000	0.000000
; 4/A
17906	-0.800000	2.800000	0.000000	0.000000	0.000000
; 5/A
17907	-0.590000	2.090000	0.000000	0.000000	0.000000
; UKN
18013	9.593391	0.499609	0.000000	200.000000	0.000000
; UKN
18014	36.414369	0.499631	0.000000	200.000000	0.000000
; UKN
18016	29.157858	0.500142	0.000000	200.000000	0.000000
; UKN
18042	0.844466	0.499534	0.000000	200.000000	0.000000
; UKN
18043	2.144990	0.855010	0.000000	200.000000	0.000000
; AV2
18044	2.279894	0.820106	0.000000	200.000000	0.000000
; IV2
18045	-0.900000	3.550000	0.000000	200.000000	0.000000
; UKN
18046	2.850000	0.650000	0.000000	200.000000	0.000000
; IV3
18047	2.850000	0.650000	0.000000	200.000000	0.000000
; SCV2
18055	0.959218	0.499782	0.000000	200.000000	0.000000
; UKN
18056	0.487696	0.800304	0.000000	200.000000	0.000000
; SCV3
18058	0.253438	0.499562	0.000000	200.000000	0.000000
; SCV4
18060	1.350000	0.500000	0.000000	200.000000	0.000000
; SCV5
18062	0.780035	0.499965	0.000000	200.000000	0.000000
; SCV6
18065	0.478550	0.500450	0.000000	200.000000	0.000000
; IV4
18068	0.537829	0.500171	0.000000	200.000000	0.000000
; IV5
18069	0.477992	0.800008	0.000000	200.000000	0.000000
; SCV7
18071	0.946911	0.800089	0.000000	200.000000	0.000000
; SCV8
18073	0.600000	0.800000	0.000000	200.000000	0.000000
; SCV10
18077	0.564422	0.799578	0.000000	200.000000	0.000000
; AV12
18078	0.694873	0.800127	0.000000	200.000000	0.000000
; SCV12
18082	0.755326	0.799674	0.000000	200.000000	0.000000
; SCV13
18083	0.445789	0.800211	0.000000	200.000000	0.000000
; UKN
18084	-0.900000	0.800000	0.000000	200.000000	0.000000
; SCV14
18086	-0.631278	0.800278	0.000000	200.000000	0.000000
; UKN
18087	0.509341	0.799659	0.000000	200.000000	0.000000
; UKN
18089	0.548162	0.499838	0.000000	200.000000	0.000000
; UKN
18091	0.862089	0.499911	0.000000	200.000000	0.000000
; A/1A
18363	-0.639000	1.995000	0.000000	0.000000	0.000000
18390	2.250000	0.750000	0.000000	0.000000	0.000000
18393	2.450000	1.750000	0.000000	0.000000	0.000000
18394	2.650000	1.100000	0.000000	0.000000	0.000000
18402	0.513510	0.800490	0.000000	200.000000	0.000000
18404	0.538000	0.842000	0.000000	200.000000	0.000000
; SCV1
18405	0.953591	0.500409	0.000000	200.000000	0.000000
; IV1
18406	1.350000	0.500000	0.000000	200.000000	0.000000
; IV2
18407	0.955396	0.499604	0.000000	200.000000	0.000000
18424	0.700000	2.150000	0.000000	0.000000	0.000000
18941	1.292000	0.708000	0.000000	0.000000	0.000000
18942	0.000000	0.500000	0.000000	0.000000	0.000000
; SPS 2053
18990	67.481000	0.600000	0.300000	200.000000	0.000000
18991	65.340000	2.970000	0.000000	0.000000	0.000000
18992	65.580000	2.110000	0.000000	0.000000	0.000000
18993	65.770000	2.560000	0.000000	0.000000	0.000000
18995	65.960000	2.000000	0.000000	0.000000	0.000000
18996	66.190000	1.090000	0.000000	0.000000	0.000000
19002	66.940000	3.060000	0.000000	0.000000	0.000000
19003	70.270000	1.860000	0.000000	0.000000	0.000000
; 1/S4
19016	77.280000	0.950000	0.000000	0.000000	0.000000
; 2/S4
19017	77.780000	1.090000	0.000000	0.000000	0.000000
; 1/S5
19019	78.770000	1.850000	0.000000	0.000000	0.000000
; 2/S5
19020	80.020000	1.400000	0.000000	0.000000	0.000000
; 3/S5
19021	81.070000	1.710000	0.000000	0.000000	0.000000
; 4/S5
19022	81.150000	1.250000	0.000000	0.000000	0.000000
19044	0.393686	0.500314	0.000000	200.000000	0.000000
19048	2.850000	0.650000	0.000000	200.000000	0.000000
19053	-0.900000	3.000000	0.000000	200.000000	0.000000