[OPTIONS]
;Option and Files Scenario Set: BASE, Base Simulation Options
FLOW_UNITS	GPM
INFILTRATION	HORTON
FLOW_ROUTING	DYNWAVE
ALLOW_PONDING	NO
DRY_DAYS	5.000000
SKIP_STEADY_STATE 	NO
IGNORE_RAINFALL	NO
IGNORE_SNOWMELT	NO
IGNORE_GROUNDWATER	NO
IGNORE_QUALITY	NO
FORCE_MAIN_EQUATION	H-W
LINK_OFFSETS	DEPTH
MIN_SLOPE	0.000000
START_DATE	01/01/2002
START_TIME	00:00
END_DATE	01/04/2002
END_TIME	00:00
REPORT_START_DATE	01/01/2002
REPORT_START_TIME	00:00
SWEEP_START	01/01
SWEEP_END	12/31
WET_STEP	01:00:00
DRY_STEP	23:00:00
ROUTING_STEP	10
REPORT_STEP	00:01:00
INERTIAL_DAMPING	NONE
VARIABLE_STEP	0.750000
MINIMUM_STEP	0.000000
LENGTHENING_STEP	2
MIN_SURFAREA	0.000000
NORMAL_FLOW_LIMITED	BOTH
MAX_TRIALS	4
HEAD_TOLERANCE	0.005000

[FILES]

[RAINGAGES]

[HYDROGRAPHS]

[EVAPORATION]
CONSTANT	0.000000
DRY_ONLY	NO

[TEMPERATURE]
; BASE Run Climatology Settings

[ADJUSTMENTS]

[SUBCATCHMENTS]

[SUBAREAS]

[INFILTRATION]

[AQUIFERS]

[GROUNDWATER]

[GWF]

[SNOWPACKS]

[JUNCTIONS]
JCT-12	519.000000	0.000000	0.000000	1000.000000	0.000000
; Riverwalk Connection
JCT-14	545.000000	0.000000	0.000000	1000.000000	0.000000
; Boone Trace High Point
JCT-16	627.000000	0.000000	0.000000	1000.000000	0.000000

[OUTFALLS]
OFALL-10	535.000000	FREE	NO

[DIVIDERS]

[STORAGE]
; Boone Trace Wetwell
STOR-10	516.000000	10.000000	3.000000	FUNCTIONAL	0.000000	0.000000	0.000000	0.000000	0.000000

[CONDUITS]
CDT-11	JCT-12	JCT-14	6663.129973	0.010000	0.000000	0.000000	0.000000	0.000000
CDT-13	JCT-14	JCT-16	9922.939320	0.010000	0.000000	0.000000	0.000000	0.000000
CDT-15	JCT-16	OFALL-10	8813.619047	0.013000	0.000000	0.000000	0.000000	0.000000

[PUMPS]
PUMP-13	STOR-10	JCT-12	CURVE-3	ON	7.000000	1.000000

[ORIFICES]

[WEIRS]

[XSECTIONS]
CDT-11	FORCE_MAIN	1.000000	120.000000	0.000000	0.000000	1	0
CDT-13	FORCE_MAIN	1.000000	120.000000	0.000000	0.000000	1	0
CDT-15	CIRCULAR	1.000000	0.000000	0.000000	0.000000	1	0

[TRANSECTS]

[LOSSES]
CDT-11	0.000000	0.000000	0.000000	YES	0.000000
CDT-13	0.000000	0.000000	0.000000	YES	0.000000
CDT-15	0.000000	0.000000	0.000000	NO	0.000000

[CONTROLS]

[POLLUTANTS]

[LANDUSES]

[COVERAGES]

[BUILDUP]

[WASHOFF]

[TREATMENT]

[INFLOWS]
STOR-10	FLOW	""	FLOW  1.0	1.000000	75.000000

[DWF]

[RDII]

[LOADINGS]

[CURVES]
; Boone Trace Wetwell
CURVE-1	STORAGE	0.000000	100.000000
CURVE-1	1.000000	100.000000
CURVE-1	2.000000	100.000000
CURVE-1	3.000000	100.000000
CURVE-1	4.000000	100.000000
CURVE-1	5.000000	100.000000
CURVE-1	6.000000	100.000000
CURVE-1	7.000000	100.000000
; Boone Trace Lead
CURVE-3	PUMP3	0.000000	3000.000000
CURVE-3	132.000000	2401.000000
CURVE-3	167.000000	1400.000000
CURVE-3	208.000000	0.000000

[TIMESERIES]

[PATTERNS]

[REPORT]
;Report Option Set: BASE, Base Simulation Report
INPUT NO
CONTINUITY YES
FLOWSTATS YES
CONTROLS NO
SUBCATCHMENTS  ALL
NODES  ALL
LINKS  ALL

[COORDINATES]
JCT-12	1668380.227257	639011.700704
JCT-14	1672788.573907	639760.098743
JCT-16	1679620.563108	634905.790627
OFALL-10	1686558.791375	634869.015566
STOR-10	1668386.783038	639000.121327


[POLYGONS]

[VERTICES]

CDT-11	1667995.557560	639719.237564
CDT-11	1668175.346749	640189.141127
CDT-11	1668481.805595	640716.250342
CDT-11	1668526.752892	640822.489408
CDT-11	1668788.264441	640748.939285
CDT-11	1669127.412230	640724.422578
CDT-11	1670324.644787	640622.269629
CDT-11	1670508.520095	640438.394322
CDT-11	1671031.543191	640536.461152
CDT-11	1671542.307934	640471.083265
CDT-11	1671914.144667	640430.222086
CDT-11	1672159.311744	640348.499727
CDT-11	1672351.359287	640234.088425
CDT-11	1672522.976241	640115.591004
CDT-11	1672637.387543	639984.835230
CDT-13	1672809.004497	639739.668154
CDT-13	1673193.099583	639788.701569
CDT-13	1673278.908060	639012.339160
CDT-13	1673352.458183	638750.827611
CDT-13	1673421.922188	638558.780068
CDT-13	1673569.022434	638285.010166
CDT-13	1673707.950444	638015.326382
CDT-13	1673904.084105	637794.676013
CDT-13	1674349.470961	637475.958813
CDT-13	1674357.643197	636997.883014
CDT-13	1674610.982509	636711.854758
CDT-13	1675428.206098	636724.113112
CDT-13	1675779.612241	636724.113112
CDT-13	1676421.132758	636658.735225
CDT-13	1676935.983619	636548.410040
CDT-13	1677508.040131	636344.104143
CDT-13	1677982.029812	636135.712128
CDT-13	1678460.105612	635935.492349
CDT-13	1678325.263720	635653.550211
CDT-13	1678500.966791	635473.761021
CDT-13	1678578.603032	635510.536083
CDT-13	1678627.636447	635498.277729
CDT-13	1678754.306104	635449.244313
CDT-13	1679040.334360	635318.488539
CDT-13	1679044.420478	635199.991119
CDT-13	1679350.879323	635081.493699
CDT-13	1679596.046400	634954.824042
CDT-13	1679583.788046	634922.135099
CDT-15	1679690.027113	634885.360037
CDT-15	1679694.113230	634918.048981
CDT-15	1679886.160774	634869.015566
CDT-15	1680290.686450	634779.120971
CDT-15	1680593.059178	634742.345909
CDT-15	1680666.609301	634742.345909
CDT-15	1680760.590014	634766.862617
CDT-15	1681234.579695	634824.068268
CDT-15	1681773.947263	634987.512986
CDT-15	1681921.047509	635077.407581
CDT-15	1682358.262129	635322.574657
CDT-15	1682570.740262	635449.244313
CDT-15	1683159.141246	635784.305985
CDT-15	1683265.380313	635935.492349
CDT-15	1683514.633507	636074.420359
CDT-15	1684164.326260	636454.429327
CDT-15	1684895.741372	636830.352178
CDT-15	1685279.836459	637022.399721
CDT-15	1685876.409678	636078.506477
CDT-15	1686060.284986	635804.736574

[SYMBOLS]

[MAP]
DIMENSIONS	1667067.395869	634438.338734	1687486.953066	641126.496583

