[TITLE]
Scenario Run :  BASE
  Input and Output FilesSW 1 0 20
 SW 1 0 20

[OPTIONS]
;Option and Files Scenario Set: BASE, Base Simulation Options
FLOW_UNITS	CFS
INFILTRATION	HORTON
FLOW_ROUTING	DYNWAVE
ALLOW_PONDING	NO
DRY_DAYS	0.000000
SKIP_STEADY_STATE 	NO
IGNORE_RAINFALL	NO
IGNORE_SNOWMELT	NO
IGNORE_GROUNDWATER	NO
IGNORE_QUALITY	NO
FORCE_MAIN_EQUATION	H-W
LINK_OFFSETS	DEPTH
MIN_SLOPE	0.000000
START_DATE	02/22/2002
START_TIME	00:00:00
END_DATE	02/22/2002
END_TIME	06:00:00
REPORT_START_DATE	02/22/2002
REPORT_START_TIME	00:00:00
SWEEP_START	01/01
SWEEP_END	12/31
WET_STEP	00:15:00
DRY_STEP	01:00:00
ROUTING_STEP	30
REPORT_STEP	00:01:40
INERTIAL_DAMPING	NONE
VARIABLE_STEP	0.750000
MINIMUM_STEP	0.5
LENGTHENING_STEP	30
MIN_SURFAREA	12.566000
NORMAL_FLOW_LIMITED	SLOPE

[FILES]

[RAINGAGES]

[HYDROGRAPHS]

[EVAPORATION]
CONSTANT	0.100000
DRY_ONLY	NO

[TEMPERATURE]

[ADJUSTMENTS]

[SUBCATCHMENTS]

[SUBAREAS]

[INFILTRATION]

[AQUIFERS]

[GROUNDWATER]

[GWF]

[SNOWPACKS]

[JUNCTIONS]
10309	101.600000	9.400000	0.000000	0.000000	0.000000
15009	111.500000	13.500000	0.000000	0.000000	0.000000
16009	102.000000	5.000000	0.000000	0.000000	0.000000
16109	102.800000	5.000000	0.000000	0.000000	0.000000
; JUNCTION DATA
80408	124.600000	5.000000	0.000000	0.000000	0.000000
80608	118.300000	5.000000	0.000000	0.000000	0.000000
81009	128.200000	8.800000	0.000000	0.000000	0.000000
81309	117.500000	12.500000	0.000000	0.000000	0.000000
82309	112.300000	5.000000	0.000000	0.000000	0.000000
JCT-10	128.600000	1.000000	0.000000	0.000000	0.000000
JCT-12	122.300000	1.000000	0.000000	0.000000	0.000000
JCT-14	116.300000	1.000000	0.000000	0.000000	0.000000
JCT-16	116.300000	3.000000	0.000000	0.000000	0.000000
JCT-18	106.800000	1.000000	0.000000	0.000000	0.000000

[OUTFALLS]
10208	89.900000	FREE	NO

[DIVIDERS]

[STORAGE]

[CONDUITS]
1030	10309	10208	4500.000000	0.016000	0.000000	0.000000	0.000000	0.000000
1570	15009	16009	5000.000000	0.015400	0.000000	0.000000	0.000000	0.000000
1600	16009	16109	500.000000	0.015000	0.000000	0.000000	0.000000	0.000000
1602	82309	16109	5000.000000	0.034000	0.000000	0.000000	0.000000	0.000000
1630	16009	10309	300.000000	0.015000	0.000000	0.000000	0.000000	0.000000
; CONDUIT DATA
8040	80408	80608	1800.000000	0.015000	0.000000	0.000000	0.000000	0.000000
8060	80608	82309	2075.000000	0.015000	0.000000	2.200000	0.000000	0.000000
8100	81009	81309	5100.000000	0.015000	0.000000	0.000000	0.000000	0.000000
8130	81309	15009	3500.000000	0.015000	0.000000	0.000000	0.000000	0.000000
CDT-11	JCT-10	JCT-12	1800.000000	0.015000	0.000000	0.000000	0.000000	0.000000
CDT-13	JCT-12	JCT-14	2075.000000	0.015000	0.000000	2.200000	0.000000	0.000000
CDT-15	JCT-16	JCT-18	5000.000000	0.034000	0.000000	0.000000	0.000000	0.000000

[PUMPS]

[ORIFICES]

[WEIRS]

[OUTLETS]
OLET-13	80408	JCT-10	4.000000	TABULAR/DEPTH	OLET-13_INLETHEADCURVE	NO
OLET-15	JCT-12	80608	1.000000	TABULAR/DEPTH	OLET-15_INLETHEADCURVE	YES
OLET-17	80608	JCT-12	4.000000	TABULAR/DEPTH	OLET-17_INLETHEADCURVE	NO
OLET-23	JCT-16	82309	0.000000	TABULAR/DEPTH	OLET-23_INLETHEADCURVE	NO
OLET-27	JCT-18	16109	0.000000	TABULAR/DEPTH	OLET-27_INLETHEADCURVE	NO

[XSECTIONS]
1030	TRIANGULAR	9.000000	54.000000	0.000000	0.000000	1	0
1570	CIRCULAR	5.500000	0.000000	0.000000	0.000000	1	0
1600	CIRCULAR	6.000000	0.000000	0.000000	0.000000	1	0
1602	CIRCULAR	5.000000	0.000000	0.000000	0.000000	1	0
1630	TRIANGULAR	9.000000	54.000000	0.000000	0.000000	1	0
8040	CIRCULAR	4.000000	0.000000	0.000000	0.000000	1	0
8060	CIRCULAR	4.000000	0.000000	0.000000	0.000000	1	0
8100	CIRCULAR	4.500000	0.000000	0.000000	0.000000	1	0
8130	CIRCULAR	4.500000	0.000000	0.000000	0.000000	1	0
CDT-11	TRAPEZOIDAL	1.000000	60.000000	0.100000	0.000000	1	0
CDT-13	TRAPEZOIDAL	1.000000	60.000000	0.100000	0.000000	1	0
CDT-15	TRAPEZOIDAL	1.000000	60.000000	0.100000	0.000000	1	0

[TRANSECTS]

[LOSSES]
1030	0.000000	0.000000	0.000000	YES	0.000000
1570	0.000000	0.000000	0.000000	NO	0.000000
1600	0.000000	0.000000	0.000000	NO	0.000000
1602	0.000000	0.000000	0.000000	NO	0.000000
1630	0.000000	0.000000	0.000000	NO	0.000000
8040	0.000000	0.000000	0.000000	NO	0.000000
8060	0.000000	0.000000	0.000000	NO	0.000000
8100	0.000000	0.000000	0.000000	NO	0.000000
8130	0.000000	0.000000	0.000000	NO	0.000000
CDT-11	0.000000	0.000000	0.000000	NO	0.000000
CDT-13	0.000000	0.000000	0.000000	NO	0.000000
CDT-15	0.000000	0.000000	0.000000	NO	0.000000

[CONTROLS]

[POLLUTANTS]

[LANDUSES]

[COVERAGES]

[BUILDUP]

[WASHOFF]

[TREATMENT]

[INFLOWS]
80408	FLOW	INFLOW@80408	FLOW  1.0	1.000000
81009	FLOW	INFLOW@81009	FLOW  1.0	1.000000
82309	FLOW	INFLOW@82309	FLOW  1.0	1.000000

[DWF]

[RDII]

[LOADINGS]

[CURVES]
; 
INLETHEADCURVE	RATING	0.000000	0.000000
INLETHEADCURVE	1.000000	1.000000
INLETHEADCURVE	2.000000	2.000000
INLETHEADCURVE	4.000000	3.000000
INLETHEADCURVE	5.000000	3.500000
INLETHEADCURVE	10.000000	5.000000
INLETHEADCURVE	100.000000	6.000000
; 
QVSQINLETCURVE	DIVERSION	0.000000	0.000000
QVSQINLETCURVE	1.000000	1.000000
QVSQINLETCURVE	2.000000	3.000000
QVSQINLETCURVE	5.000000	4.000000
QVSQINLETCURVE	10.000000	5.000000
QVSQINLETCURVE	20.000000	5.500000
QVSQINLETCURVE	100.000000	6.000000
OLET-13_INLETHEADCURVE  RATING	0.000000	0.000000
OLET-13_INLETHEADCURVE	1.000000	1.000000
OLET-13_INLETHEADCURVE	2.000000	2.000000
OLET-13_INLETHEADCURVE	4.000000	3.000000
OLET-13_INLETHEADCURVE	5.000000	3.500000
OLET-13_INLETHEADCURVE	10.000000	5.000000
OLET-13_INLETHEADCURVE	100.000000	6.000000

OLET-15_INLETHEADCURVE  RATING	0.000000	0.000000
OLET-15_INLETHEADCURVE	1.000000	2.000000
OLET-15_INLETHEADCURVE	2.000000	4.000000
OLET-15_INLETHEADCURVE	4.000000	6.000000
OLET-15_INLETHEADCURVE	5.000000	7.000000
OLET-15_INLETHEADCURVE	10.000000	10.000000
OLET-15_INLETHEADCURVE	100.000000	12.000000

OLET-17_INLETHEADCURVE  RATING	0.000000	0.000000
OLET-17_INLETHEADCURVE	1.000000	1.000000
OLET-17_INLETHEADCURVE	2.000000	2.000000
OLET-17_INLETHEADCURVE	4.000000	3.000000
OLET-17_INLETHEADCURVE	5.000000	3.500000
OLET-17_INLETHEADCURVE	10.000000	5.000000
OLET-17_INLETHEADCURVE	100.000000	6.000000

OLET-23_INLETHEADCURVE  RATING	0.000000	0.000000
OLET-23_INLETHEADCURVE	1.000000	1.000000
OLET-23_INLETHEADCURVE	2.000000	2.000000
OLET-23_INLETHEADCURVE	4.000000	3.000000
OLET-23_INLETHEADCURVE	5.000000	3.500000
OLET-23_INLETHEADCURVE	10.000000	5.000000
OLET-23_INLETHEADCURVE	100.000000	6.000000

OLET-27_INLETHEADCURVE  RATING	0.000000	0.000000
OLET-27_INLETHEADCURVE	1.000000	2.000000
OLET-27_INLETHEADCURVE	2.000000	4.000000
OLET-27_INLETHEADCURVE	4.000000	6.000000
OLET-27_INLETHEADCURVE	5.000000	7.000000
OLET-27_INLETHEADCURVE	10.000000	10.000000
OLET-27_INLETHEADCURVE	100.000000	12.000000


[TIMESERIES]
INFLOW@82309	02/22/2002	00:00	0.000000
INFLOW@82309	00:15	40.000000
INFLOW@82309	03:00	40.000000
INFLOW@82309	03:15	0.000000

INFLOW@80408	02/22/2002	00:00	0.000000
INFLOW@80408	00:15	45.000000
INFLOW@80408	03:00	45.000000
INFLOW@80408	03:15	0.000000

INFLOW@81009	02/22/2002	00:00	0.000000
INFLOW@81009	00:15	50.000000
INFLOW@81009	03:00	50.000000
INFLOW@81009	03:15	0.000000


[PATTERNS]

[REPORT]
;Report Option Set: BASE, Base Simulation Report
INPUT YES
CONTINUITY YES
FLOWSTATS YES
CONTROLS NO
SUBCATCHMENTS  ALL
NODES  ALL
LINKS  ALL

[COORDINATES]
10208	-578.950000	4947.370000
10309	389.470000	2421.050000
15009	4978.950000	2421.050000
16009	2494.740000	2421.050000
16109	2494.740000	7536.840000
80408	10115.790000	7536.840000
80608	7463.160000	7536.840000
81009	9989.470000	2421.050000
81309	7568.420000	2421.050000
82309	4957.890000	7536.840000
JCT-10	10115.790000	7336.840000
JCT-12	7463.160000	7336.840000
JCT-14	4957.890000	7336.840000
JCT-16	4957.890000	7336.840000
JCT-18	2494.740000	7336.840000


[POLYGONS]

[VERTICES]

OLET-13	10165.790000	7436.840000
OLET-15	7413.160000	7436.840000
OLET-17	7513.160000	7436.840000
OLET-23	4907.890000	7436.840000
OLET-27	2444.740000	7436.840000

[SYMBOLS]

[MAP]
DIMENSIONS	-1116.187000	2165.260500	10703.027000	7792.629500

