[TITLE]
Scenario Run :  BASE

[OPTIONS]
;Option and Files Scenario Set: BASE, Base Simulation Options
FLOW_UNITS	CFS
INFILTRATION	GREEN_AMPT
FLOW_ROUTING	DYNWAVE
ALLOW_PONDING	NO
DRY_DAYS	5.000000
SKIP_STEADY_STATE 	NO
IGNORE_RAINFALL	NO
IGNORE_SNOWMELT	NO
IGNORE_GROUNDWATER	NO
IGNORE_QUALITY	NO
FORCE_MAIN_EQUATION	H-W
LINK_OFFSETS	DEPTH
MIN_SLOPE	0.000000
START_DATE	02/11/2004
START_TIME	00:00:00
END_DATE	02/13/2004
END_TIME	00:00:00
REPORT_START_DATE	02/11/2004
REPORT_START_TIME	00:00:00
SWEEP_START	01/01
SWEEP_END	12/31
WET_STEP	0:00:30
DRY_STEP	24:00:00
ROUTING_STEP	30
REPORT_STEP	0:00:30
INERTIAL_DAMPING	PARTIAL
VARIABLE_STEP	0.750000
MINIMUM_STEP	0.5
LENGTHENING_STEP	1
MIN_SURFAREA	0.000000
NORMAL_FLOW_LIMITED	SLOPE

[FILES]

[RAINGAGES]
BVILLE 14 10YRGAGE	CUMULATIVE	0.100000	1.000000	TIMESERIES	BVILLE 14 10YR		

[HYDROGRAPHS]

[EVAPORATION]
MONTHLY	0.000000	0.000000	0.000000	0.000000	0.000000	0.000000	0.000000	0.000000	0.000000	0.000000	0.000000	0.000000
DRY_ONLY	NO

[TEMPERATURE]

[ADJUSTMENTS]

[SUBCATCHMENTS]
1005#1	BVILLE 14 10YRGAGE	1005	1.492000	61.700000	0.003375	3.316080	0.000000
1014#1	BVILLE 14 10YRGAGE	1014	2.228000	71.400000	0.006291	3.900248	0.000000
10409#1	BVILLE 14 10YRGAGE	10409	0.886000	38.200000	0.005097	3.325592	0.000000
10414#1	BVILLE 14 10YRGAGE	10414	7.009000	73.200000	0.018089	5.759024	0.000000
105#1	BVILLE 14 10YRGAGE	105	15.713000	41.300000	0.012053	8.677896	0.000000
10726#1	BVILLE 14 10YRGAGE	10726	4.456000	46.800000	0.015014	14.114168	0.000000
10734#1	BVILLE 14 10YRGAGE	10734	1.129000	61.800000	0.006793	4.364696	0.000000
10735#1	BVILLE 14 10YRGAGE	10735	2.390000	70.300000	0.009207	4.127224	0.000000
10737#1	BVILLE 14 10YRGAGE	10737	0.396000	76.800000	0.003398	4.621848	0.000000
10746#1	BVILLE 14 10YRGAGE	10746	1.578000	76.900000	0.009479	5.560256	0.000000
10750#1	BVILLE 14 10YRGAGE	10750	4.927000	85.900000	0.011984	4.647432	0.000000
10751#1	BVILLE 14 10YRGAGE	10751	6.602000	35.400000	0.009733	3.802832	0.000000
10754#1	BVILLE 14 10YRGAGE	10754	0.296000	86.600000	0.003927	3.760192	0.000000
10755#1	BVILLE 14 10YRGAGE	10755	0.279000	100.000000	0.003469	4.986256	0.000000
10756#1	BVILLE 14 10YRGAGE	10756	1.283000	69.400000	0.006039	5.623560	0.000000
1097#1	BVILLE 14 10YRGAGE	1097	5.242000	87.700000	0.006979	4.949192	0.000000
1106#1	BVILLE 14 10YRGAGE	1106	7.168000	32.500000	0.018343	3.105832	0.000000
1107#1	BVILLE 14 10YRGAGE	1107	0.124000	72.600000	0.001750	6.502928	0.000000
111#1	BVILLE 14 10YRGAGE	111	3.294000	18.700000	0.013039	11.315344	0.000000
1111#1	BVILLE 14 10YRGAGE	1111	1.146000	62.900000	0.007989	4.047192	0.000000
1112#1	BVILLE 14 10YRGAGE	1112	0.074000	84.200000	0.001890	4.023248	0.000000
1115#1	BVILLE 14 10YRGAGE	1115	1.119000	57.500000	0.010900	4.559200	0.000000
11167#1	BVILLE 14 10YRGAGE	11167	2.457000	55.900000	0.009321	11.989056	0.000000
11168#1	BVILLE 14 10YRGAGE	11168	2.250000	44.800000	0.008883	10.665248	0.000000
11170#1	BVILLE 14 10YRGAGE	11170	0.869000	25.100000	0.005168	15.844696	0.000000
11171#1	BVILLE 14 10YRGAGE	11171	8.115000	24.700000	0.023093	13.493264	0.000000
1119#1	BVILLE 14 10YRGAGE	1119	0.737000	56.400000	0.011065	6.538352	0.000000
1120#1	BVILLE 14 10YRGAGE	1120	0.379000	23.100000	0.005571	5.901048	0.000000
1120#2	BVILLE 14 10YRGAGE	1120	4.172000	87.300000	0.016482	4.739272	0.000000
1120#3	BVILLE 14 10YRGAGE	1120	4.820000	82.400000	0.015816	7.115960	0.000000
1120#4	BVILLE 14 10YRGAGE	1120	2.078000	74.200000	0.016412	5.760664	0.000000
1122#1	BVILLE 14 10YRGAGE	1122	0.138000	89.600000	0.005922	5.586824	0.000000
11227#1	BVILLE 14 10YRGAGE	11227	2.728000	32.400000	0.009160	21.972064	0.000000
11229#1	BVILLE 14 10YRGAGE	11229	1.586000	3.800000	0.012927	14.451024	0.000000
11230#1	BVILLE 14 10YRGAGE	11230	0.293000	30.600000	0.004174	12.443992	0.000000
11231#1	BVILLE 14 10YRGAGE	11231	4.560000	38.300000	0.017770	12.932384	0.000000
11234#1	BVILLE 14 10YRGAGE	11234	1.870000	77.400000	0.004087	4.286960	0.000000
11237#1	BVILLE 14 10YRGAGE	11237	2.753000	11.700000	0.011937	22.137376	0.000000
1124#1	BVILLE 14 10YRGAGE	1124	0.925000	51.000000	0.012711	4.986912	0.000000
1127#1	BVILLE 14 10YRGAGE	1127	0.557000	66.000000	0.013327	4.728120	0.000000
11280#1	BVILLE 14 10YRGAGE	11280	1.383000	66.200000	0.005672	6.623632	0.000000
11299#1	BVILLE 14 10YRGAGE	11299	0.448000	67.800000	0.006949	5.749184	0.000000
11300#1	BVILLE 14 10YRGAGE	11300	0.170000	99.900000	0.007485	3.876304	0.000000
11303#1	BVILLE 14 10YRGAGE	11303	12.860000	28.500000	0.035997	6.069968	0.000000
1134#1	BVILLE 14 10YRGAGE	1134	5.973000	80.600000	0.026493	3.828744	0.000000
1136#1	BVILLE 14 10YRGAGE	1136	0.397000	35.700000	0.004781	5.072520	0.000000
1139#1	BVILLE 14 10YRGAGE	1139	12.984000	22.000000	0.027342	4.102296	0.000000
1143#1	BVILLE 14 10YRGAGE	1143	6.845000	51.200000	0.018113	8.608360	0.000000
11459#1	BVILLE 14 10YRGAGE	11459	0.347000	73.600000	0.007729	5.046608	0.000000
1146#1	BVILLE 14 10YRGAGE	1146	0.349000	21.000000	0.007462	5.264728	0.000000
115#1	BVILLE 14 10YRGAGE	115	2.870000	37.500000	0.009595	9.377520	0.000000
11504#1	BVILLE 14 10YRGAGE	11504	6.536000	53.800000	0.018388	10.781360	0.000000
11509#1	BVILLE 14 10YRGAGE	11509	2.376000	20.900000	0.008333	7.613208	0.000000
1152#1	BVILLE 14 10YRGAGE	1152	0.451000	79.300000	0.005461	4.089176	0.000000
1154#1	BVILLE 14 10YRGAGE	1154	5.142000	81.200000	0.012558	3.173072	0.000000
11568#1	BVILLE 14 10YRGAGE	11568	1.516000	38.900000	0.007394	15.232648	0.000000
11571#1	BVILLE 14 10YRGAGE	11571	0.702000	33.800000	0.010674	11.628912	0.000000
11574#1	BVILLE 14 10YRGAGE	11574	0.784000	72.500000	0.007601	3.636536	0.000000
11576#1	BVILLE 14 10YRGAGE	11576	3.459000	56.900000	0.015770	4.693680	0.000000
11579#1	BVILLE 14 10YRGAGE	11579	7.039000	64.200000	0.018457	4.833408	0.000000
11584#1	BVILLE 14 10YRGAGE	11584	0.251000	85.000000	0.004745	4.861616	0.000000
11594#1	BVILLE 14 10YRGAGE	11594	0.595000	65.300000	0.004042	3.164544	0.000000
11595#1	BVILLE 14 10YRGAGE	11595	3.302000	76.800000	0.010744	5.444144	0.000000
11596#1	BVILLE 14 10YRGAGE	11596	0.342000	72.300000	0.009287	5.891208	0.000000
11598#1	BVILLE 14 10YRGAGE	11598	0.685000	51.100000	0.012071	5.591744	0.000000
11599#1	BVILLE 14 10YRGAGE	11599	6.911000	53.900000	0.024680	11.443264	0.000000
1160#1	BVILLE 14 10YRGAGE	1160	4.657000	57.600000	0.017563	5.621920	0.000000
11605#1	BVILLE 14 10YRGAGE	11605	0.734000	66.500000	0.014252	3.057288	0.000000
11606#1	BVILLE 14 10YRGAGE	11606	0.542000	32.200000	0.014123	2.996280	0.000000
11608#1	BVILLE 14 10YRGAGE	11608	0.908000	3.300000	0.013472	4.792408	0.000000
11610#1	BVILLE 14 10YRGAGE	11610	0.386000	53.600000	0.004042	5.989280	0.000000
11617#1	BVILLE 14 10YRGAGE	11617	2.549000	58.000000	0.011938	6.360576	0.000000
11618#1	BVILLE 14 10YRGAGE	11618	0.876000	56.400000	0.003514	6.779760	0.000000
11619#1	BVILLE 14 10YRGAGE	11619	1.342000	50.200000	0.007757	7.704392	0.000000
11620#1	BVILLE 14 10YRGAGE	11620	3.218000	42.400000	0.009802	7.785736	0.000000
11627#1	BVILLE 14 10YRGAGE	11627	4.544000	62.800000	0.020570	7.697504	0.000000
11633#1	BVILLE 14 10YRGAGE	11633	0.075000	71.300000	0.000942	4.215456	0.000000
11638#1	BVILLE 14 10YRGAGE	11638	1.436000	18.700000	0.008173	10.653112	0.000000
11751#1	BVILLE 14 10YRGAGE	11751	3.095000	93.700000	0.013086	5.482192	0.000000
1176#1	BVILLE 14 10YRGAGE	1176	0.711000	47.100000	0.004525	3.822840	0.000000
11762#1	BVILLE 14 10YRGAGE	11762	2.131000	82.500000	0.008884	6.376648	0.000000
11763#1	BVILLE 14 10YRGAGE	11763	0.765000	41.600000	0.007595	8.477488	0.000000
1177#1	BVILLE 14 10YRGAGE	1177	3.722000	56.000000	0.017766	6.934576	0.000000
11778#1	BVILLE 14 10YRGAGE	11778	0.714000	96.600000	0.005327	3.847768	0.000000
11781#1	BVILLE 14 10YRGAGE	11781	0.242000	13.000000	0.003288	5.524504	0.000000
11786#1	BVILLE 14 10YRGAGE	11786	0.349000	74.400000	0.003194	6.131304	0.000000
11788#1	BVILLE 14 10YRGAGE	11788	0.340000	70.400000	0.001491	7.653552	0.000000
11798#1	BVILLE 14 10YRGAGE	11798	1.524000	73.200000	0.009984	6.246432	0.000000
11808#1	BVILLE 14 10YRGAGE	11808	0.526000	88.800000	0.004067	4.412912	0.000000
1181#1	BVILLE 14 10YRGAGE	1181	3.759000	45.000000	0.015243	6.834208	0.000000
11816#1	BVILLE 14 10YRGAGE	11816	0.755000	47.200000	0.007969	6.073248	0.000000
11817#1	BVILLE 14 10YRGAGE	11817	1.541000	99.800000	0.005462	2.908704	0.000000
11819#1	BVILLE 14 10YRGAGE	11819	0.553000	78.400000	0.006617	6.238232	0.000000
11825#1	BVILLE 14 10YRGAGE	11825	0.311000	89.900000	0.004250	6.032248	0.000000
11826#1	BVILLE 14 10YRGAGE	11826	0.420000	25.700000	0.004433	11.034248	0.000000
11831#1	BVILLE 14 10YRGAGE	11831	0.392000	29.200000	0.004458	3.113376	0.000000
11832#1	BVILLE 14 10YRGAGE	11832	0.677000	17.800000	0.006589	9.380472	0.000000
11837#1	BVILLE 14 10YRGAGE	11837	0.941000	60.200000	0.007413	11.835880	0.000000
1184#1	BVILLE 14 10YRGAGE	1184	0.815000	57.400000	0.012118	6.610512	0.000000
11843#1	BVILLE 14 10YRGAGE	11843	0.492000	59.600000	0.011987	7.596808	0.000000
11865#1	BVILLE 14 10YRGAGE	11865	5.038000	20.400000	0.016644	18.805880	0.000000
11866#1	BVILLE 14 10YRGAGE	11866	0.482000	11.900000	0.005078	21.410856	0.000000
12152#1	BVILLE 14 10YRGAGE	12152	0.724000	19.200000	0.006240	20.056544	0.000000
12156#1	BVILLE 14 10YRGAGE	12156	4.892000	27.200000	0.013957	13.432584	0.000000
1216#1	BVILLE 14 10YRGAGE	1216	0.632000	70.400000	0.004017	4.981992	0.000000
12164#1	BVILLE 14 10YRGAGE	12164	15.411000	16.700000	0.022223	15.390088	0.000000
12166#1	BVILLE 14 10YRGAGE	12166	0.309000	25.300000	0.002781	3.953384	0.000000
1218#1	BVILLE 14 10YRGAGE	1218	0.419000	4.100000	0.005419	6.313344	0.000000
12184#1	BVILLE 14 10YRGAGE	12184	3.001000	18.200000	0.008564	16.597784	0.000000
1219#1	BVILLE 14 10YRGAGE	1219	2.482000	52.500000	0.016528	7.908408	0.000000
12191#1	BVILLE 14 10YRGAGE	12191	0.889000	87.000000	0.007440	4.962968	0.000000
12192#1	BVILLE 14 10YRGAGE	12192	1.450000	63.000000	0.009712	4.713032	0.000000
122#1	BVILLE 14 10YRGAGE	122	0.694000	43.300000	0.004821	6.957208	0.000000
12202#1	BVILLE 14 10YRGAGE	12202	0.449000	77.900000	0.006102	6.437984	0.000000
1222#1	BVILLE 14 10YRGAGE	1222	1.858000	70.900000	0.014554	7.018216	0.000000
1223#1	BVILLE 14 10YRGAGE	1223	0.392000	64.100000	0.005215	9.029840	0.000000
12256#1	BVILLE 14 10YRGAGE	12256	0.584000	9.100000	0.003534	8.644112	0.000000
12257#1	BVILLE 14 10YRGAGE	12257	0.151000	1.800000	0.002407	9.583504	0.000000
12258#1	BVILLE 14 10YRGAGE	12258	0.376000	41.600000	0.003645	7.604680	0.000000
1227#1	BVILLE 14 10YRGAGE	1227	0.569000	77.300000	0.015142	4.559856	0.000000
1231#1	BVILLE 14 10YRGAGE	1231	1.395000	45.500000	0.012557	5.506792	0.000000
12317#1	BVILLE 14 10YRGAGE	12317	1.070000	73.800000	0.005007	12.394136	0.000000
12323#1	BVILLE 14 10YRGAGE	12323	0.107000	36.200000	0.003389	14.494976	0.000000
12329#1	BVILLE 14 10YRGAGE	12329	1.026000	45.200000	0.007757	15.966712	0.000000
1233#1	BVILLE 14 10YRGAGE	1233	2.004000	67.400000	0.009893	7.155976	0.000000
1234001#1	BVILLE 14 10YRGAGE	1234001	3.871000	6.000000	0.012419	11.358968	0.000000
1234002#1	BVILLE 14 10YRGAGE	1234002	11.080000	24.000000	0.032759	11.648264	0.000000
1234003#1	BVILLE 14 10YRGAGE	1234003	3.698000	14.600000	0.007255	18.810144	0.000000
1234004#1	BVILLE 14 10YRGAGE	1234004	1.938000	51.600000	0.014161	16.796552	0.000000
1235#1	BVILLE 14 10YRGAGE	1235	1.246000	58.900000	0.005556	5.748856	0.000000
12352#1	BVILLE 14 10YRGAGE	12352	0.648000	37.200000	0.009801	7.353104	0.000000
12363#1	BVILLE 14 10YRGAGE	12363	0.637000	12.200000	0.004179	33.133904	0.000000
12365#1	BVILLE 14 10YRGAGE	12365	8.357000	50.900000	0.021877	12.740832	0.000000
12366#1	BVILLE 14 10YRGAGE	12366	8.290000	30.500000	0.022223	20.925744	0.000000
12370#1	BVILLE 14 10YRGAGE	12370	3.845000	17.800000	0.015842	9.299784	0.000000
1238#1	BVILLE 14 10YRGAGE	1238	0.394000	69.100000	0.007558	4.797656	0.000000
1239#1	BVILLE 14 10YRGAGE	1239	1.372000	57.300000	0.007898	3.690984	0.000000
124#1	BVILLE 14 10YRGAGE	124	4.989000	16.400000	0.012350	12.380032	0.000000
1241#1	BVILLE 14 10YRGAGE	1241	0.386000	83.400000	0.007470	5.083344	0.000000
1243#1	BVILLE 14 10YRGAGE	1243	1.183000	37.500000	0.012697	6.448152	0.000000
1246#1	BVILLE 14 10YRGAGE	1246	0.580000	57.000000	0.006769	4.194464	0.000000
1248#1	BVILLE 14 10YRGAGE	1248	0.958000	64.200000	0.011477	6.780088	0.000000
12488#1	BVILLE 14 10YRGAGE	12488	1.839000	70.900000	0.009227	7.930712	0.000000
12494#1	BVILLE 14 10YRGAGE	12494	0.234000	23.100000	0.006693	5.779360	0.000000
12496#1	BVILLE 14 10YRGAGE	12496	1.342000	42.200000	0.008267	10.652128	0.000000
12497#1	BVILLE 14 10YRGAGE	12497	1.582000	47.200000	0.007462	10.717400	0.000000
12500#1	BVILLE 14 10YRGAGE	12500	1.801000	48.600000	0.015222	6.210680	0.000000
12501#1	BVILLE 14 10YRGAGE	12501	0.862000	16.200000	0.006407	8.871744	0.000000
12502#1	BVILLE 14 10YRGAGE	12502	6.670000	35.800000	0.011616	9.810808	0.000000
12505#1	BVILLE 14 10YRGAGE	12505	3.781000	32.000000	0.009252	8.065192	0.000000
12507#1	BVILLE 14 10YRGAGE	12507	2.087000	30.200000	0.009456	8.376792	0.000000
12526#1	BVILLE 14 10YRGAGE	12526	1.285000	32.000000	0.011039	9.532008	0.000000
1257#1	BVILLE 14 10YRGAGE	1257	3.853000	40.700000	0.010972	8.588352	0.000000
1259#1	BVILLE 14 10YRGAGE	1259	1.267000	32.600000	0.010127	8.124888	0.000000
12590#1	BVILLE 14 10YRGAGE	12590	0.766000	5.900000	0.004410	7.628296	0.000000
12596#1	BVILLE 14 10YRGAGE	12596	2.055000	65.100000	0.006223	8.113408	0.000000
126#1	BVILLE 14 10YRGAGE	126	0.747000	8.500000	0.003859	13.836680	0.000000
1260#1	BVILLE 14 10YRGAGE	1260	4.128000	20.700000	0.011892	12.221936	0.000000
12612#1	BVILLE 14 10YRGAGE	12612	4.404000	42.800000	0.009964	9.729464	0.000000
12614#1	BVILLE 14 10YRGAGE	12614	1.033000	29.500000	0.005328	9.074448	0.000000
12616#1	BVILLE 14 10YRGAGE	12616	1.179000	48.300000	0.006979	12.831032	0.000000
12620#1	BVILLE 14 10YRGAGE	12620	3.529000	23.600000	0.007966	10.837776	0.000000
12621#1	BVILLE 14 10YRGAGE	12621	1.314000	31.000000	0.009869	10.435320	0.000000
12622#1	BVILLE 14 10YRGAGE	12622	0.273000	55.100000	0.004499	8.690360	0.000000
12623#1	BVILLE 14 10YRGAGE	12623	0.692000	28.500000	0.005581	8.796632	0.000000
12624#1	BVILLE 14 10YRGAGE	12624	0.205000	51.100000	0.004741	8.501104	0.000000
12625#1	BVILLE 14 10YRGAGE	12625	1.210000	5.900000	0.006657	18.623840	0.000000
12628#1	BVILLE 14 10YRGAGE	12628	1.290000	13.800000	0.006840	9.035088	0.000000
12630#1	BVILLE 14 10YRGAGE	12630	9.018000	18.100000	0.019054	14.814448	0.000000
12634#1	BVILLE 14 10YRGAGE	12634	3.293000	38.800000	0.010904	10.828264	0.000000
12638#1	BVILLE 14 10YRGAGE	12638	2.318000	37.700000	0.009965	14.488088	0.000000
12650#1	BVILLE 14 10YRGAGE	12650	1.827000	35.400000	0.006865	15.003704	0.000000
12651#1	BVILLE 14 10YRGAGE	12651	0.535000	13.100000	0.004892	13.557552	0.000000
12652#1	BVILLE 14 10YRGAGE	12652	0.271000	59.800000	0.004243	8.470600	0.000000
127#1	BVILLE 14 10YRGAGE	127	1.678000	17.100000	0.006061	8.559816	0.000000
12737#1	BVILLE 14 10YRGAGE	12737	3.924000	28.000000	0.009665	8.282656	0.000000
12739#1	BVILLE 14 10YRGAGE	12739	5.177000	6.300000	0.009298	18.929208	0.000000
12747#1	BVILLE 14 10YRGAGE	12747	4.917000	34.000000	0.009412	6.884392	0.000000
12754#1	BVILLE 14 10YRGAGE	12754	19.181000	31.200000	0.022222	9.162680	0.000000
12758#1	BVILLE 14 10YRGAGE	12758	7.529000	5.600000	0.014049	25.992032	0.000000
12762#1	BVILLE 14 10YRGAGE	12762	3.374000	11.100000	0.013409	12.556496	0.000000
12767#1	BVILLE 14 10YRGAGE	12767	11.718000	9.100000	0.017746	5.208968	0.000000
12768#1	BVILLE 14 10YRGAGE	12768	3.232000	59.300000	0.012146	6.437656	0.000000
128#1	BVILLE 14 10YRGAGE	128	0.928000	31.900000	0.014710	6.939824	0.000000
12812#1	BVILLE 14 10YRGAGE	12812	0.620000	85.800000	0.004500	12.786424	0.000000
12817#1	BVILLE 14 10YRGAGE	12817	11.058000	54.600000	0.045613	13.611672	0.000000
12824#1	BVILLE 14 10YRGAGE	12824	1.164000	13.800000	0.011321	17.108152	0.000000
12834#1	BVILLE 14 10YRGAGE	12834	2.478000	62.100000	0.012258	4.594296	0.000000
12858#1	BVILLE 14 10YRGAGE	12858	3.180000	41.300000	0.010421	6.456024	0.000000
12863#1	BVILLE 14 10YRGAGE	12863	2.726000	47.900000	0.015081	7.386560	0.000000
12864#1	BVILLE 14 10YRGAGE	12864	0.813000	59.600000	0.003834	17.033368	0.000000
13#1	BVILLE 14 10YRGAGE	13	2.229000	26.800000	0.008817	14.249960	0.000000
13131#1	BVILLE 14 10YRGAGE	13131	0.971000	60.900000	0.009637	5.437912	0.000000
1318#1	BVILLE 14 10YRGAGE	1318	2.238000	58.200000	0.010906	7.538752	0.000000
1319#1	BVILLE 14 10YRGAGE	1319	0.402000	39.300000	0.004611	5.167968	0.000000
1320#1	BVILLE 14 10YRGAGE	1320	0.086000	93.000000	0.002834	6.005680	0.000000
1322#1	BVILLE 14 10YRGAGE	1322	0.860000	59.000000	0.004775	6.397312	0.000000
13238#1	BVILLE 14 10YRGAGE	13238	0.729000	33.000000	0.003465	4.814384	0.000000
1325#1	BVILLE 14 10YRGAGE	1325	7.278000	49.300000	0.021833	5.643240	0.000000
13273#1	BVILLE 14 10YRGAGE	13273	8.099000	23.500000	0.012558	12.442024	0.000000
13274#1	BVILLE 14 10YRGAGE	13274	2.793000	24.300000	0.006772	15.977536	0.000000
1330#1	BVILLE 14 10YRGAGE	1330	3.582000	49.500000	0.013983	6.545240	0.000000
1331#1	BVILLE 14 10YRGAGE	1331	0.238000	59.400000	0.003556	3.826448	0.000000
13368#1	BVILLE 14 10YRGAGE	13368	4.385000	85.700000	0.016897	5.084000	0.000000
1346#1	BVILLE 14 10YRGAGE	1346	0.327000	68.800000	0.003995	4.911144	0.000000
13462#1	BVILLE 14 10YRGAGE	13462	7.981000	74.600000	0.016483	6.019128	0.000000
13473#1	BVILLE 14 10YRGAGE	13473	0.221000	18.700000	0.003243	6.500304	0.000000
1353#1	BVILLE 14 10YRGAGE	1353	2.803000	44.500000	0.007416	5.666200	0.000000
1356#1	BVILLE 14 10YRGAGE	1356	10.460000	12.100000	0.018686	13.286952	0.000000
1362#1	BVILLE 14 10YRGAGE	1362	6.725000	33.300000	0.015220	8.943576	0.000000
1368#1	BVILLE 14 10YRGAGE	1368	0.399000	36.700000	0.006306	10.606536	0.000000
13713#1	BVILLE 14 10YRGAGE	13713	2.455000	17.900000	0.014901	17.581456	0.000000
13714#1	BVILLE 14 10YRGAGE	13714	0.540000	32.300000	0.007482	12.911064	0.000000
13719#1	BVILLE 14 10YRGAGE	13719	6.397000	27.900000	0.020846	19.285416	0.000000
13721#1	BVILLE 14 10YRGAGE	13721	5.668000	21.100000	0.015289	11.118872	0.000000
1376#1	BVILLE 14 10YRGAGE	1376	2.745000	49.100000	0.012880	7.732600	0.000000
1381#1	BVILLE 14 10YRGAGE	1381	1.791000	47.700000	0.014645	7.486600	0.000000
1382#1	BVILLE 14 10YRGAGE	1382	1.373000	60.600000	0.007023	7.603368	0.000000
1387#1	BVILLE 14 10YRGAGE	1387	5.084000	56.800000	0.019466	5.900392	0.000000
1389#1	BVILLE 14 10YRGAGE	1389	1.111000	38.400000	0.012531	4.615288	0.000000
1395#1	BVILLE 14 10YRGAGE	1395	1.637000	65.500000	0.007601	5.957792	0.000000
1395#2	BVILLE 14 10YRGAGE	1395	1.355000	59.100000	0.010328	6.403544	0.000000
13977#1	BVILLE 14 10YRGAGE	13977	0.731000	43.000000	0.005742	5.188960	0.000000
13979#1	BVILLE 14 10YRGAGE	13979	9.256000	33.100000	0.022774	7.649616	0.000000
1399#1	BVILLE 14 10YRGAGE	1399	1.293000	41.900000	0.009759	7.173688	0.000000
13996#1	BVILLE 14 10YRGAGE	13996	3.834000	29.700000	0.012190	15.803368	0.000000
1402#1	BVILLE 14 10YRGAGE	1402	0.910000	47.400000	0.015824	4.297128	0.000000
1404#1	BVILLE 14 10YRGAGE	1404	15.751000	51.700000	0.023072	10.388088	0.000000
14092#1	BVILLE 14 10YRGAGE	14092	0.813000	26.200000	0.013841	8.174088	0.000000
14093#1	BVILLE 14 10YRGAGE	14093	3.323000	23.600000	0.019767	11.577088	0.000000
14098#1	BVILLE 14 10YRGAGE	14098	11.365000	26.300000	0.022819	10.723960	0.000000
14103#1	BVILLE 14 10YRGAGE	14103	5.902000	19.300000	0.012786	11.304192	0.000000
14104#1	BVILLE 14 10YRGAGE	14104	0.515000	41.900000	0.005047	8.091760	0.000000
14106#1	BVILLE 14 10YRGAGE	14106	2.888000	20.700000	0.009275	7.301280	0.000000
14108#1	BVILLE 14 10YRGAGE	14108	6.971000	24.500000	0.020202	9.974480	0.000000
14171#1	BVILLE 14 10YRGAGE	14171	0.619000	63.400000	0.014685	4.270560	0.000000
14174#1	BVILLE 14 10YRGAGE	14174	5.252000	21.700000	0.021969	10.993904	0.000000
1426#1	BVILLE 14 10YRGAGE	1426	0.438000	72.100000	0.006168	3.807424	0.000000
1430#1	BVILLE 14 10YRGAGE	1430	0.521000	61.400000	0.005093	5.132544	0.000000
1430#2	BVILLE 14 10YRGAGE	1430	0.565000	25.500000	0.005031	6.611496	0.000000
1430#3	BVILLE 14 10YRGAGE	1430	2.315000	51.500000	0.008332	9.527416	0.000000
1432#1	BVILLE 14 10YRGAGE	1432	11.055000	56.000000	0.018503	5.392320	0.000000
14338#1	BVILLE 14 10YRGAGE	14338	0.504000	79.500000	0.004498	17.654272	0.000000
1434#1	BVILLE 14 10YRGAGE	1434	0.795000	51.700000	0.007044	6.443232	0.000000
1435#1	BVILLE 14 10YRGAGE	1435	3.624000	49.600000	0.014233	7.946456	0.000000
1439#1	BVILLE 14 10YRGAGE	1439	11.453000	45.000000	0.023622	8.598520	0.000000
1444#1	BVILLE 14 10YRGAGE	1444	2.078000	31.000000	0.010810	12.229152	0.000000
1447#1	BVILLE 14 10YRGAGE	1447	4.646000	33.900000	0.021925	8.677568	0.000000
1451#1	BVILLE 14 10YRGAGE	1451	0.229000	74.500000	0.005603	5.731800	0.000000
1455#1	BVILLE 14 10YRGAGE	1455	1.191000	89.900000	0.006999	4.381096	0.000000
1457#1	BVILLE 14 10YRGAGE	1457	4.757000	79.500000	0.012580	7.913328	0.000000
1458#1	BVILLE 14 10YRGAGE	1458	0.854000	94.400000	0.004521	8.077000	0.000000
1460#1	BVILLE 14 10YRGAGE	1460	2.636000	46.800000	0.010997	8.408280	0.000000
1461#1	BVILLE 14 10YRGAGE	1461	0.283000	45.100000	0.004343	7.623704	0.000000
1463#1	BVILLE 14 10YRGAGE	1463	2.734000	43.500000	0.009965	10.918792	0.000000
14636#1	BVILLE 14 10YRGAGE	14636	1.138000	18.000000	0.005072	4.114760	0.000000
14706#1	BVILLE 14 10YRGAGE	14706	0.480000	46.000000	0.005605	9.964968	0.000000
14708#1	BVILLE 14 10YRGAGE	14708	0.698000	28.300000	0.007394	5.636680	0.000000
14709#1	BVILLE 14 10YRGAGE	14709	1.722000	15.300000	0.010469	14.576648	0.000000
14710#1	BVILLE 14 10YRGAGE	14710	1.269000	16.100000	0.006567	11.163480	0.000000
14711#1	BVILLE 14 10YRGAGE	14711	0.338000	35.600000	0.004916	6.193624	0.000000
14712#1	BVILLE 14 10YRGAGE	14712	1.216000	41.500000	0.006866	9.055752	0.000000
1475#1	BVILLE 14 10YRGAGE	1475	1.466000	43.300000	0.006728	5.917120	0.000000
1476#1	BVILLE 14 10YRGAGE	1476	0.312000	92.200000	0.012541	4.970512	0.000000
1479#1	BVILLE 14 10YRGAGE	1479	5.054000	44.400000	0.012098	11.848344	0.000000
1479#2	BVILLE 14 10YRGAGE	1479	5.837000	20.800000	0.019491	15.540968	0.000000
1483#1	BVILLE 14 10YRGAGE	1483	3.127000	47.800000	0.024216	7.440024	0.000000
1484#1	BVILLE 14 10YRGAGE	1484	3.890000	28.900000	0.020937	7.602384	0.000000
1485#1	BVILLE 14 10YRGAGE	1485	4.719000	27.600000	0.015726	15.659376	0.000000
1485#2	BVILLE 14 10YRGAGE	1485	0.441000	14.300000	0.005604	12.093032	0.000000
1485#3	BVILLE 14 10YRGAGE	1485	0.917000	37.100000	0.006384	16.436080	0.000000
1485#4	BVILLE 14 10YRGAGE	1485	1.300000	21.000000	0.017834	21.369200	0.000000
1486#1	BVILLE 14 10YRGAGE	1486	0.732000	34.200000	0.007533	13.196752	0.000000
1492#1	BVILLE 14 10YRGAGE	1492	10.541000	36.500000	0.023554	14.042008	0.000000
15082#1	BVILLE 14 10YRGAGE	15082	8.163000	34.000000	0.017264	5.237832	0.000000
1510#1	BVILLE 14 10YRGAGE	1510	0.945000	72.100000	0.020770	6.257256	0.000000
15101#1	BVILLE 14 10YRGAGE	15101	7.435000	38.200000	0.019743	7.167784	0.000000
1514#1	BVILLE 14 10YRGAGE	1514	7.038000	34.800000	0.015405	10.304776	0.000000
1517#1	BVILLE 14 10YRGAGE	1517	0.268000	66.100000	0.008505	8.829104	0.000000
1517#2	BVILLE 14 10YRGAGE	1517	2.546000	57.800000	0.015197	10.670168	0.000000
1517#3	BVILLE 14 10YRGAGE	1517	0.635000	65.300000	0.004434	11.642688	0.000000
1517#4	BVILLE 14 10YRGAGE	1517	1.565000	58.200000	0.007831	10.376936	0.000000
1521#1	BVILLE 14 10YRGAGE	1521	0.721000	78.500000	0.009871	12.132392	0.000000
1522#1	BVILLE 14 10YRGAGE	1522	1.717000	42.200000	0.003169	7.679464	0.000000
1531#1	BVILLE 14 10YRGAGE	1531	5.913000	47.300000	0.013522	7.848384	0.000000
1538#1	BVILLE 14 10YRGAGE	1538	4.261000	54.900000	0.015197	8.266912	0.000000
1540#1	BVILLE 14 10YRGAGE	1540	8.622000	48.800000	0.028465	12.977976	0.000000
15422#1	BVILLE 14 10YRGAGE	15422	1.990000	57.600000	0.007738	15.851912	0.000000
1544#1	BVILLE 14 10YRGAGE	1544	0.935000	73.200000	0.011314	3.114032	0.000000
1548#1	BVILLE 14 10YRGAGE	1548	4.301000	40.900000	0.013337	14.394280	0.000000
15518#1	BVILLE 14 10YRGAGE	15518	2.652000	34.300000	0.011868	9.590064	0.000000
1553#1	BVILLE 14 10YRGAGE	1553	2.809000	18.300000	0.011318	13.928848	0.000000
1554#1	BVILLE 14 10YRGAGE	1554	1.072000	56.300000	0.005991	7.981224	0.000000
1558#1	BVILLE 14 10YRGAGE	1558	4.672000	29.900000	0.008310	9.415568	0.000000
1559#1	BVILLE 14 10YRGAGE	1559	3.430000	19.600000	0.010539	11.537400	0.000000
1565#1	BVILLE 14 10YRGAGE	1565	0.887000	75.800000	0.010605	4.446696	0.000000
1574#1	BVILLE 14 10YRGAGE	1574	2.905000	92.800000	0.006864	3.990776	0.000000
1586#1	BVILLE 14 10YRGAGE	1586	2.402000	75.100000	0.007255	7.819520	0.000000
1593#1	BVILLE 14 10YRGAGE	1593	8.704000	19.600000	0.032966	5.788872	0.000000
1593#2	BVILLE 14 10YRGAGE	1593	4.507000	35.400000	0.025206	4.624800	0.000000
1609#1	BVILLE 14 10YRGAGE	1609	1.408000	67.500000	0.008952	5.031192	0.000000
161#1	BVILLE 14 10YRGAGE	161	3.812000	48.500000	0.015084	9.398184	0.000000
1615#1	BVILLE 14 10YRGAGE	1615	1.074000	65.800000	0.004798	3.076968	0.000000
1616#1	BVILLE 14 10YRGAGE	1616	0.411000	54.800000	0.005186	4.672688	0.000000
1616#2	BVILLE 14 10YRGAGE	1616	0.643000	54.400000	0.004685	7.278648	0.000000
1618#1	BVILLE 14 10YRGAGE	1618	0.973000	62.500000	0.008405	8.565064	0.000000
1624#1	BVILLE 14 10YRGAGE	1624	2.902000	51.400000	0.015084	6.846344	0.000000
1628#1	BVILLE 14 10YRGAGE	1628	0.425000	34.800000	0.005326	6.498336	0.000000
1633#1	BVILLE 14 10YRGAGE	1633	0.936000	84.000000	0.011749	4.587736	0.000000
1635#1	BVILLE 14 10YRGAGE	1635	1.007000	78.800000	0.006338	3.676224	0.000000
1638#1	BVILLE 14 10YRGAGE	1638	1.892000	82.700000	0.007965	4.044568	0.000000
1640#1	BVILLE 14 10YRGAGE	1640	0.971000	79.700000	0.006039	4.891136	0.000000
1655#1	BVILLE 14 10YRGAGE	1655	1.682000	63.700000	0.007509	3.843832	0.000000
1656#1	BVILLE 14 10YRGAGE	1656	0.462000	93.100000	0.011304	3.417432	0.000000
1657#1	BVILLE 14 10YRGAGE	1657	0.489000	78.300000	0.005556	10.119456	0.000000
1659#1	BVILLE 14 10YRGAGE	1659	0.423000	32.800000	0.011886	4.193480	0.000000
166#1	BVILLE 14 10YRGAGE	166	5.164000	45.900000	0.014028	8.669368	0.000000
1660#1	BVILLE 14 10YRGAGE	1660	0.492000	70.400000	0.010661	3.931736	0.000000
1661#1	BVILLE 14 10YRGAGE	1661	0.710000	53.500000	0.003858	4.758952	0.000000
1662#1	BVILLE 14 10YRGAGE	1662	2.300000	95.200000	0.004132	3.920584	0.000000
1664#1	BVILLE 14 10YRGAGE	1664	0.630000	58.800000	0.009359	4.548048	0.000000
1665#1	BVILLE 14 10YRGAGE	1665	0.681000	59.900000	0.010579	3.940592	0.000000
1668#1	BVILLE 14 10YRGAGE	1668	5.635000	83.800000	0.008953	4.430952	0.000000
1669#1	BVILLE 14 10YRGAGE	1669	1.277000	75.200000	0.010448	3.872368	0.000000
1671#1	BVILLE 14 10YRGAGE	1671	2.893000	64.700000	0.009985	10.149304	0.000000
1683#1	BVILLE 14 10YRGAGE	1683	1.498000	11.800000	0.010538	8.306600	0.000000
1685#1	BVILLE 14 10YRGAGE	1685	0.479000	47.800000	0.007905	16.644360	0.000000
1687#1	BVILLE 14 10YRGAGE	1687	1.290000	64.100000	0.010564	7.850024	0.000000
1689#1	BVILLE 14 10YRGAGE	1689	0.792000	28.100000	0.005649	23.838384	0.000000
1692#1	BVILLE 14 10YRGAGE	1692	0.979000	64.800000	0.010720	20.336000	0.000000
1695#1	BVILLE 14 10YRGAGE	1695	0.975000	69.100000	0.007349	7.341952	0.000000
1699#1	BVILLE 14 10YRGAGE	1699	0.189000	100.000000	0.007533	6.489480	0.000000
1700#1	BVILLE 14 10YRGAGE	1700	1.519000	24.200000	0.007254	14.407072	0.000000
1710#1	BVILLE 14 10YRGAGE	1710	29.129000	19.400000	0.031290	13.496872	0.000000
1712#1	BVILLE 14 10YRGAGE	1712	1.562000	89.500000	0.006198	7.883808	0.000000
1713#1	BVILLE 14 10YRGAGE	1713	0.283000	79.400000	0.003333	6.734824	0.000000
1714#1	BVILLE 14 10YRGAGE	1714	1.119000	79.900000	0.006014	6.488824	0.000000
1717#1	BVILLE 14 10YRGAGE	1717	1.178000	89.000000	0.004338	5.720976	0.000000
1719#1	BVILLE 14 10YRGAGE	1719	11.162000	35.800000	0.035997	9.152184	0.000000
1720#1	BVILLE 14 10YRGAGE	1720	0.295000	13.200000	0.012442	6.975576	0.000000
1721#1	BVILLE 14 10YRGAGE	1721	0.813000	33.200000	0.012621	23.483816	0.000000
1722#1	BVILLE 14 10YRGAGE	1722	0.889000	31.200000	0.008659	18.903952	0.000000
1725#1	BVILLE 14 10YRGAGE	1725	0.183000	79.300000	0.007407	7.296688	0.000000
1726#1	BVILLE 14 10YRGAGE	1726	0.727000	30.000000	0.008420	17.669688	0.000000
1730#1	BVILLE 14 10YRGAGE	1730	0.992000	56.700000	0.006610	9.796048	0.000000
1733#1	BVILLE 14 10YRGAGE	1733	0.776000	69.100000	0.003053	5.653408	0.000000
174#1	BVILLE 14 10YRGAGE	174	2.377000	50.600000	0.010766	14.594032	0.000000
1742#1	BVILLE 14 10YRGAGE	1742	0.262000	64.700000	0.005143	4.701224	0.000000
1745#1	BVILLE 14 10YRGAGE	1745	0.707000	46.800000	0.008218	6.190672	0.000000
1746#1	BVILLE 14 10YRGAGE	1746	2.777000	56.900000	0.008678	6.482592	0.000000
176#1	BVILLE 14 10YRGAGE	176	7.591000	39.900000	0.011456	8.466336	0.000000
177#1	BVILLE 14 10YRGAGE	177	1.415000	41.300000	0.005234	10.501576	0.000000
1772#1	BVILLE 14 10YRGAGE	1772	5.094000	57.200000	0.019191	7.280944	0.000000
1796#1	BVILLE 14 10YRGAGE	1796	1.762000	44.500000	0.023000	16.840504	0.000000
1798#1	BVILLE 14 10YRGAGE	1798	0.660000	17.200000	0.005899	31.684800	0.000000
1802#1	BVILLE 14 10YRGAGE	1802	1.118000	35.200000	0.007715	12.492536	0.000000
1804#1	BVILLE 14 10YRGAGE	1804	3.592000	43.700000	0.017128	8.350224	0.000000
1807#1	BVILLE 14 10YRGAGE	1807	2.510000	15.700000	0.024131	5.208312	0.000000
181#1	BVILLE 14 10YRGAGE	181	2.465000	43.800000	0.013198	7.964496	0.000000
1816#1	BVILLE 14 10YRGAGE	1816	4.327000	74.900000	0.004683	11.994632	0.000000
1828#1	BVILLE 14 10YRGAGE	1828	14.960000	52.100000	0.034940	17.564072	0.000000
1828#2	BVILLE 14 10YRGAGE	1828	11.680000	38.600000	0.031474	17.337752	0.000000
1833#1	BVILLE 14 10YRGAGE	1833	1.418000	41.100000	0.019302	3.687704	0.000000
1843#1	BVILLE 14 10YRGAGE	1843	2.089000	59.300000	0.013406	11.928704	0.000000
1847#1	BVILLE 14 10YRGAGE	1847	3.008000	65.100000	0.020223	13.808800	0.000000
1852#1	BVILLE 14 10YRGAGE	1852	1.413000	64.200000	0.005761	21.532544	0.000000
1858#1	BVILLE 14 10YRGAGE	1858	0.223000	87.700000	0.003232	9.187936	0.000000
186#1	BVILLE 14 10YRGAGE	186	1.626000	47.800000	0.007207	8.658544	0.000000
1861#1	BVILLE 14 10YRGAGE	1861	2.701000	70.800000	0.010264	12.317056	0.000000
1866#1	BVILLE 14 10YRGAGE	1866	2.682000	52.500000	0.007714	10.601944	0.000000