[TITLE]
Scenario Run :  BASE
LID Model

[OPTIONS]
;Option and Files Scenario Set: BASE, Base Simulation Options
FLOW_UNITS	CMS
INFILTRATION	HORTON
FLOW_ROUTING	DYNWAVE
ALLOW_PONDING	YES
DRY_DAYS	0.000000
SKIP_STEADY_STATE 	NO
IGNORE_RAINFALL	NO
IGNORE_SNOWMELT	NO
IGNORE_GROUNDWATER	NO
IGNORE_QUALITY	NO
FORCE_MAIN_EQUATION	H-W
LINK_OFFSETS	DEPTH
MIN_SLOPE	0.000000
SYS_FLOW_TOL	5
LAT_FLOW_TOL	5
START_DATE	03/22/2017
START_TIME	00:00:00
END_DATE	03/22/2017
END_TIME	05:00:00
REPORT_START_DATE	03/22/2017
REPORT_START_TIME	00:00:00
SWEEP_START	01/01
SWEEP_END	01/03
WET_STEP	00:05:00
DRY_STEP	01:00:00
ROUTING_STEP	5
REPORT_STEP	00:05:00
INERTIAL_DAMPING	PARTIAL
VARIABLE_STEP	0.750000
MINIMUM_STEP	0.500000
LENGTHENING_STEP	0
MIN_SURFAREA	1.140000
NORMAL_FLOW_LIMITED	BOTH
MAX_TRIALS	8
HEAD_TOLERANCE	0.001500

[FILES]

[RAINGAGES]
1	INTENSITY	0.083333	1.000000	TIMESERIES	A		

[HYDROGRAPHS]

[EVAPORATION]
CONSTANT	1.000000
DRY_ONLY	NO

[TEMPERATURE]

[ADJUSTMENTS]

[SUBCATCHMENTS]
100	1	1	1.000000	50.000000	100.000000	1.000000	0.000000

[SUBAREAS]
100	0.013000	0.050000	1.000000	100.000000	50.000000	OUTLET

[INFILTRATION]
100	50.000000	10.000000	1.000000	999.000000	0.000000

[AQUIFERS]

[GROUNDWATER]

[GWF]

[SNOWPACKS]

[LID_CONTROLS]
BIO-RETENTION	BC
BIO-RETENTION	SURFACE	1000.000000	0.000000	0.100000	1.000000	5.000000
BIO-RETENTION	SOIL	1000.000000	0.500000	0.250000	0.100000	10.000000	10.000000	100.000000
BIO-RETENTION	STORAGE	1000.000000	0.100000	10.000000	0.000000
BIO-RETENTION	DRAIN	10.000000	0.500000	0.000000	6.000000

RAINGARDEN	RG
RAINGARDEN	SURFACE	1000.000000	0.000000	0.100000	1.000000	5.000000
RAINGARDEN	SOIL	1000.000000	0.500000	0.250000	0.100000	10.000000	10.000000	100.000000
RAINGARDEN	STORAGE	1000.000000	0.100000	10.000000	0.000000


[LID_USAGE]
100	BIO-RETENTION	1	2500.000000	10.000000	0.000000	50.000000	0
100	RAINGARDEN	1	2500.000000	100.000000	0.000000	50.000000	0

[JUNCTIONS]
1	102.000000	7.298640	0.000000	0.000000	80000.000000
2	101.000000	4.342740	0.000000	0.000000	0.000000

[OUTFALLS]
3	100.000000	FREE	NO

[DIVIDERS]

[STORAGE]

[CONDUITS]
12	1	2	100.000000	0.010000	0.000000	0.000000	0.000000	0.000000
23	2	3	100.000000	0.010000	0.000000	0.000000	0.000000	0.000000

[PUMPS]

[ORIFICES]

[WEIRS]

[XSECTIONS]
12	CIRCULAR	1.000000	0.000000	0.000000	0.000000	1	0
23	RECT_CLOSED	1.000000	1.600000	0.000000	0.000000	1	0

[TRANSECTS]

[LOSSES]
12	0.000000	0.000000	0.000000	NO	0.000000
23	0.000000	0.000000	0.000000	NO	0.000000

[CONTROLS]

[POLLUTANTS]
SF1	MG/L	0.000000	0.000000	0.000000	0.000000	NO	*	0.000000	0.000000	0.000000

[LANDUSES]
A	0.000000	0.000000	0.000000

[COVERAGES]
100	A	100.000000

[BUILDUP]
A	SF1	POW	0.000000	1.000000	1.000000	AREA

[WASHOFF]
A	SF1	EXP	1.000000	1.000000	0.000000	0.000000

[TREATMENT]

[INFLOWS]

[DWF]

[RDII]

[LOADINGS]
100	SF1	40.000000

[CURVES]

[TIMESERIES]
A	00:00	0.000000
A	00:05	9.573452
A	00:10	10.252742
A	00:15	11.046238
A	00:20	11.985638
A	00:25	13.115463
A	00:30	14.500196
A	00:35	16.236710
A	00:40	18.477133
A	00:45	21.473911
A	00:50	25.676391
A	00:55	31.962365
A	01:00	42.282906
A	01:05	61.903237
A	01:10	110.659675
A	01:15	202.186353
A	01:20	122.982584
A	01:25	78.787460
A	01:30	57.074345
A	01:35	44.446280
A	01:40	36.290304
A	01:45	30.631316
A	01:50	26.494816
A	01:55	23.349124
A	02:00	20.881505
A	02:05	18.896791
A	02:10	17.267395
A	02:15	15.906585
A	02:20	14.753454
A	02:25	13.764066
A	02:30	12.905976
A	02:35	12.154705
A	02:40	11.491475
A	02:45	10.901634
A	02:50	10.373600
A	02:55	9.898093
A	03:00	9.467598


[PATTERNS]

[REPORT]
;Report Option Set: BASE, Base Simulation Report
INPUT YES
CONTINUITY YES
FLOWSTATS YES
CONTROLS NO
SUBCATCHMENTS  ALL
NODES  ALL
LINKS  ALL

[COORDINATES]
1	82811.980000	8743.508000
2	83134.103000	8743.516000
3	83462.085000	8743.524000


[POLYGONS]

100	83119.103000	8710.484000
100	83119.103000	8551.761000
100	82790.784000	8551.761000
100	82793.138000	8710.780000
100	82813.136000	8730.484000
100	83099.103000	8730.484000
100	83119.103000	8710.484000

[VERTICES]


[SYMBOLS]
1	82983.981000	8630.926000

[MAP]
DIMENSIONS	82757.218950	8542.172850	83495.650050	8753.112150

