[TITLE]

[OPTIONS]
FLOW_UNITS          	MGD
INFILTRATION        	CURVE_NUMBER
FLOW_ROUTING        	KINWAVE
START_DATE          	02/04/2014
START_TIME          	00:00:00
REPORT_START_DATE   	02/04/2014
REPORT_START_TIME   	00:00:00
END_DATE            	02/04/2014
END_TIME            	00:00:00
SWEEP_START         	1/1
SWEEP_END           	12/31
DRY_DAYS            	0
REPORT_STEP         	00:15:00
WET_STEP            	00:05:00
DRY_STEP            	01:00:00
ROUTING_STEP        	0:00:30
ALLOW_PONDING       	YES
INERTIAL_DAMPING    	PARTIAL
VARIABLE_STEP       	0.75
LENGTHENING_STEP    	0
MIN_SURFAREA        	0
NORMAL_FLOW_LIMITED 	BOTH
SKIP_STEADY_STATE   	NO
FORCE_MAIN_EQUATION 	H-W
LINK_OFFSETS        	DEPTH
MIN_SLOPE           	0

[EVAPORATION]
;;Type      	Parameters
;;----------	----------
CONSTANT    	0.0
DRY_ONLY     NO

[SUBCATCHMENTS]
;;              	                	                	Total   	Pcnt.   	        	Pcnt.   	Curb    	Snow
;;Name          	Raingage        	Outlet          	Area    	Imperv  	Width   	Slope   	Length  	Pack
;;--------------	----------------	----------------	--------	--------	--------	--------	--------	--------
; Name Raingage Outlet Area %Imperv Width Slope Clength
GBA_000         	15              	1569001         	0.000000	0.000000	525.189592	0.000000	0.000000	
GBA_001         	1               	0831007         	0.000000	0.000000	310.549729	0.820862	0.000000	
GBA_002         	11              	0712010         	0.000000	0.000000	1294.756481	1.519263	0.000000	
GBA_003         	12              	0704014         	0.000000	0.000000	1362.150413	4.628955	0.000000	
GBA_004         	13              	0718004         	0.000000	0.000000	647.709467	0.842824	0.000000	
GBA_005         	10              	0733006         	0.000000	0.000000	2055.833072	0.301225	0.000000	
GBA_006         	7               	0852009         	0.000000	0.000000	315.935004	1.901514	0.000000	
GBA_007         	8               	0810002         	0.000000	0.000000	1050.874648	4.437534	0.000000	
GBA_008         	9               	0846022         	0.000000	0.000000	735.508120	1.744980	0.000000	
GBA_009         	14              	1017006         	0.000000	0.000000	767.115300	0.998143	0.000000	
GBA_010         	6               	0862002         	0.000000	0.000000	388.238168	0.483555	0.000000	
GBA_011         	3               	1005004         	0.000000	0.000000	1341.506644	2.858048	0.000000	
GBA_012         	2               	0859118         	0.000000	0.000000	873.123433	1.589141	0.000000	
GBA_013         	5               	0854102         	0.000000	0.000000	433.542410	4.189824	0.000000	
GBA_014         	2               	0856004         	0.000000	0.000000	533.959566	0.197887	0.000000	
GBA_015         	2               	0859014         	0.000000	0.000000	955.470364	1.413617	0.000000	
GBA_016         	2               	0859248         	0.000000	0.000000	471.273232	2.046872	0.000000	
GBA_017         	2               	0859229         	0.000000	0.000000	382.097956	1.019457	0.000000	
GBA_018         	2               	0859010         	0.000000	0.000000	1106.597633	0.183333	0.000000	
GBA_019         	2               	0859006         	0.000000	0.000000	524.846626	0.922610	0.000000	
GBA_020         	2               	0859008         	0.000000	0.000000	714.493245	0.606977	0.000000	
GBA_021         	2               	0859011         	0.000000	0.000000	395.889477	1.351554	0.000000	
GBA_022         	2               	0858009         	0.000000	0.000000	715.213438	1.675207	0.000000	
GBA_023         	2               	0857004         	0.000000	0.000000	1083.180037	1.950418	0.000000	
GBA_024         	2               	0858006         	0.000000	0.000000	408.486915	1.648403	0.000000	
GBA_025         	2               	0858004         	0.000000	0.000000	408.878559	0.418865	0.000000	
GBA_026         	2               	0858001         	0.000000	0.000000	425.352535	1.924500	0.000000	
GBA_027         	2               	0857001         	0.000000	0.000000	397.412822	1.138303	0.000000	
GBA_028         	2               	0856023         	0.000000	0.000000	325.974621	2.919000	0.000000	
GBA_029         	1               	0861005         	0.000000	0.000000	671.395630	0.311500	0.000000	
GBA_030         	1               	0818006         	0.000000	0.000000	244.838889	4.085392	0.000000	
GBA_031         	1               	0856025         	0.000000	0.000000	328.454392	3.929712	0.000000	
GBA_032         	1               	0818007         	0.000000	0.000000	284.486322	1.237778	0.000000	
GBA_033         	1               	0861025         	0.000000	0.000000	530.651835	2.367167	0.000000	
GBA_034         	1               	0861025         	0.000000	0.000000	419.564635	2.367167	0.000000	
GBA_035         	1               	0861010         	0.000000	0.000000	415.474559	0.192576	0.000000	
GBA_036         	1               	0861003         	0.000000	0.000000	283.633649	2.131702	0.000000	
GBA_037         	1               	0830013         	0.000000	0.000000	760.047118	0.688630	0.000000	
GBA_038         	1               	0830001         	0.000000	0.000000	254.235037	2.223108	0.000000	
GBA_039         	1               	0830020         	0.000000	0.000000	1012.667072	1.821500	0.000000	
GBA_040         	1               	0830008         	0.000000	0.000000	168.016762	0.173599	0.000000	
GBA_041         	1               	0830044         	0.000000	0.000000	202.736024	2.400570	0.000000	
GBA_042         	1               	0830041         	0.000000	0.000000	147.509443	4.294647	0.000000	
GBA_043         	1               	0830038         	0.000000	0.000000	503.294140	3.609736	0.000000	
GBA_044         	1               	0830029         	0.000000	0.000000	566.479278	4.723883	0.000000	
GBA_045         	1               	0830050         	0.000000	0.000000	338.859519	4.311803	0.000000	
GBA_046         	1               	0830012         	0.000000	0.000000	284.289688	0.913323	0.000000	
GBA_047         	1               	0830010         	0.000000	0.000000	308.592838	1.400230	0.000000	
GBA_048         	1               	0831014         	0.000000	0.000000	758.000813	0.169163	0.000000	
GBA_049         	1               	0831019         	0.000000	0.000000	450.544799	0.588777	0.000000	
GBA_050         	1               	0831078         	0.000000	0.000000	246.469029	1.719316	0.000000	
GBA_051         	1               	0831016         	0.000000	0.000000	311.359059	5.965764	0.000000	
GBA_052         	1               	0831012         	0.000000	0.000000	293.968334	1.176415	0.000000	
GBA_053         	1               	0831006         	0.000000	0.000000	234.791749	1.580931	0.000000	
GBA_054         	1               	0861012         	0.000000	0.000000	612.921263	1.536871	0.000000	
GBA_055         	1               	0831079         	0.000000	0.000000	212.195806	7.785255	0.000000	
GBA_056         	5               	0832006         	0.000000	0.000000	313.402513	0.684273	0.000000	
GBA_057         	5               	0832007         	0.000000	0.000000	588.761413	0.700361	0.000000	
GBA_058         	5               	0832005         	0.000000	0.000000	340.290269	0.135120	0.000000	
GBA_059         	5               	0862005         	0.000000	0.000000	355.062092	1.713662	0.000000	
GBA_060         	5               	0862013         	0.000000	0.000000	204.715642	0.229380	0.000000	
GBA_061         	5               	0860086         	0.000000	0.000000	1051.496193	3.702398	0.000000	
GBA_062         	5               	0870001         	0.000000	0.000000	615.855420	0.304622	0.000000	
GBA_063         	5               	0860001         	0.000000	0.000000	528.165638	4.193016	0.000000	
GBA_064         	5               	0870006         	0.000000	0.000000	216.420151	3.546575	0.000000	
GBA_065         	5               	0860002         	0.000000	0.000000	784.746015	3.623977	0.000000	
GBA_066         	5               	0860002         	0.000000	0.000000	846.474537	3.623977	0.000000	
GBA_067         	5               	0862013         	0.000000	0.000000	444.146067	0.229380	0.000000	
GBA_0672        	5               	0860002         	0.000000	0.000000	335.576123	3.623977	0.000000	
GBA_068         	5               	0870039         	0.000000	0.000000	1159.890344	0.083539	0.000000	
GBA_069         	5               	0870045         	0.000000	0.000000	331.534588	1.242192	0.000000	
GBA_070         	5               	0833002         	0.000000	0.000000	336.347311	0.014215	0.000000	
GBA_071         	5               	0854102         	0.000000	0.000000	193.292146	4.189824	0.000000	
GBA_072         	5               	0854025         	0.000000	0.000000	1159.241031	2.195482	0.000000	
GBA_073         	5               	0854016         	0.000000	0.000000	580.626901	1.238922	0.000000	
GBA_074         	5               	0854215         	0.000000	0.000000	308.391607	3.256569	0.000000	
GBA_075         	5               	0854019         	0.000000	0.000000	279.304105	4.986345	0.000000	
GBA_076         	5               	0854017         	0.000000	0.000000	282.250325	2.807907	0.000000	
GBA_077         	5               	0854142         	0.000000	0.000000	307.419671	0.492500	0.000000	
GBA_078         	5               	0854165         	0.000000	0.000000	983.118523	1.420198	0.000000	
GBA_079         	5               	0820013         	0.000000	0.000000	270.850771	5.379903	0.000000	
GBA_080         	5               	0820014         	0.000000	0.000000	783.900267	2.411793	0.000000	
GBA_081         	3               	1007026         	0.000000	0.000000	1393.123819	1.197168	0.000000	
GBA_082         	3               	1002025         	0.000000	0.000000	449.845154	3.255852	0.000000	
GBA_083         	3               	1002009         	0.000000	0.000000	979.063220	1.734176	0.000000	
GBA_084         	3               	1007036         	0.000000	0.000000	351.835608	0.716984	0.000000	
GBA_085         	3               	1007040         	0.000000	0.000000	315.741730	1.068537	0.000000	
GBA_086         	3               	1002033         	0.000000	0.000000	441.564827	1.998458	0.000000	
GBA_087         	3               	0830018         	0.000000	0.000000	1110.914578	1.443126	0.000000	
GBA_088         	3               	1007048         	0.000000	0.000000	387.354709	0.855941	0.000000	
GBA_089         	3               	1003002         	0.000000	0.000000	1382.941803	2.172092	0.000000	
GBA_090         	3               	1008002         	0.000000	0.000000	1297.478291	1.159394	0.000000	
GBA_091         	3               	1001027         	0.000000	0.000000	131.601926	0.506991	0.000000	
GBA_092         	3               	1001027         	0.000000	0.000000	402.665577	0.506991	0.000000	
GBA_093         	3               	1001026         	0.000000	0.000000	658.377633	0.272597	0.000000	
GBA_094         	3               	1001023         	0.000000	0.000000	900.097122	1.313569	0.000000	
GBA_095         	3               	0830017         	0.000000	0.000000	215.817036	0.147208	0.000000	
GBA_096         	3               	1001088         	0.000000	0.000000	122.030553	0.546309	0.000000	
GBA_097         	3               	1001085         	0.000000	0.000000	151.401128	0.125019	0.000000	
GBA_098         	3               	1011003         	0.000000	0.000000	247.952738	0.415266	0.000000	
GBA_099         	3               	1012036         	0.000000	0.000000	432.910185	2.793831	0.000000	
GBA_100         	3               	1012001         	0.000000	0.000000	451.953191	1.914497	0.000000	
GBA_101         	3               	1013030         	0.000000	0.000000	610.670733	1.758406	0.000000	
GBA_102         	3               	1013008         	0.000000	0.000000	341.150189	0.055790	0.000000	
GBA_103         	3               	1021023         	0.000000	0.000000	323.606223	2.651466	0.000000	
GBA_104         	3               	1020001         	0.000000	0.000000	588.498178	0.947942	0.000000	
GBA_105         	3               	1013002         	0.000000	0.000000	467.423935	0.647863	0.000000	
GBA_106         	3               	1013003         	0.000000	0.000000	481.472053	1.024979	0.000000	
GBA_107         	3               	1014025         	0.000000	0.000000	975.536738	4.180333	0.000000	
GBA_108         	3               	1016001         	0.000000	0.000000	742.452857	1.483178	0.000000	
GBA_109         	3               	1022068         	0.000000	0.000000	247.090581	0.860499	0.000000	
GBA_110         	3               	1022057         	0.000000	0.000000	671.967412	2.337438	0.000000	
GBA_111         	3               	1015005         	0.000000	0.000000	775.858632	1.784948	0.000000	
GBA_112         	3               	1015080         	0.000000	0.000000	652.361018	3.355813	0.000000	
GBA_113         	3               	1013057         	0.000000	0.000000	291.412433	3.733905	0.000000	
GBA_114         	3               	1015001         	0.000000	0.000000	301.012271	1.488246	0.000000	
GBA_115         	3               	1015001         	0.000000	0.000000	889.853856	1.488246	0.000000	
GBA_116         	3               	1015038         	0.000000	0.000000	439.397609	0.120457	0.000000	
GBA_117         	3               	1015005         	0.000000	0.000000	262.967213	1.784948	0.000000	
GBA_118         	3               	1005009         	0.000000	0.000000	220.583646	0.508307	0.000000	
GBA_119         	3               	1005011         	0.000000	0.000000	783.726595	0.727573	0.000000	
GBA_120         	3               	1005004         	0.000000	0.000000	520.086469	2.858048	0.000000	
GBA_121         	3               	1021006         	0.000000	0.000000	237.628665	0.069541	0.000000	
GBA_122         	3               	1021008         	0.000000	0.000000	156.560975	0.330679	0.000000	
GBA_123         	3               	1014017         	0.000000	0.000000	391.526391	2.700115	0.000000	
GBA_124         	3               	1013003         	0.000000	0.000000	240.086102	1.024979	0.000000	
GBA_125         	3               	1014023         	0.000000	0.000000	278.353070	4.725774	0.000000	
GBA_126         	3               	1020011         	0.000000	0.000000	258.344796	0.786427	0.000000	
GBA_127         	3               	1020003         	0.000000	0.000000	310.869494	0.254969	0.000000	
GBA_128         	3               	1003056         	0.000000	0.000000	310.415795	1.847279	0.000000	
GBA_129         	3               	1008002         	0.000000	0.000000	319.738981	1.159394	0.000000	
GBA_130         	3               	1011003         	0.000000	0.000000	208.675502	0.415266	0.000000	
GBA_131         	3               	1014006         	0.000000	0.000000	240.168475	1.920797	0.000000	
GBA_132         	3               	1011001         	0.000000	0.000000	575.904405	0.516989	0.000000	
GBA_133         	3               	1002019         	0.000000	0.000000	380.397146	0.337562	0.000000	
GBA_134         	3               	1007047         	0.000000	0.000000	284.594498	4.480585	0.000000	
GBA_135         	3               	1007037         	0.000000	0.000000	276.046958	0.241944	0.000000	
GBA_136         	3               	1007037         	0.000000	0.000000	146.419051	0.241944	0.000000	
GBA_137         	3               	1007023         	0.000000	0.000000	240.460350	1.251758	0.000000	
GBA_138         	3               	1007050         	0.000000	0.000000	309.759260	1.638905	0.000000	
GBA_139         	3               	1003001         	0.000000	0.000000	719.241284	1.024070	0.000000	
GBA_140         	14              	1021010         	0.000000	0.000000	256.961333	1.139570	0.000000	
GBA_141         	14              	1022003         	0.000000	0.000000	561.220187	0.080116	0.000000	
GBA_142         	14              	1022004         	0.000000	0.000000	274.173106	0.969383	0.000000	
GBA_143         	14              	1026005         	0.000000	0.000000	249.789128	0.156151	0.000000	
GBA_144         	14              	1023001         	0.000000	0.000000	456.052629	0.827113	0.000000	
GBA_145         	14              	1022022         	0.000000	0.000000	214.799754	3.345437	0.000000	
GBA_146         	14              	1022022         	0.000000	0.000000	529.030745	3.345437	0.000000	
GBA_147         	14              	1026007         	0.000000	0.000000	471.289690	0.725099	0.000000	
GBA_148         	14              	1022010         	0.000000	0.000000	153.195036	0.756468	0.000000	
GBA_149         	14              	1023034         	0.000000	0.000000	986.444278	0.844115	0.000000	
GBA_150         	14              	1023039         	0.000000	0.000000	256.427753	1.708340	0.000000	
GBA_151         	14              	1023004         	0.000000	0.000000	251.498266	1.095361	0.000000	
GBA_152         	14              	1018045         	0.000000	0.000000	166.778444	1.933160	0.000000	
GBA_153         	14              	1018041         	0.000000	0.000000	136.368522	0.591545	0.000000	
GBA_154         	14              	1018028         	0.000000	0.000000	421.898506	2.541399	0.000000	
GBA_155         	14              	1023017         	0.000000	0.000000	254.553386	0.352240	0.000000	
GBA_156         	14              	1023011         	0.000000	0.000000	224.934606	0.527735	0.000000	
GBA_157         	14              	1022010         	0.000000	0.000000	398.015254	0.756468	0.000000	
GBA_158         	14              	1023016         	0.000000	0.000000	188.810656	1.590336	0.000000	
GBA_159         	14              	1018019         	0.000000	0.000000	260.396730	1.418275	0.000000	
GBA_160         	14              	1023113         	0.000000	0.000000	146.146476	0.218725	0.000000	
GBA_161         	14              	1023011         	0.000000	0.000000	522.919734	0.527735	0.000000	
GBA_162         	14              	1018045         	0.000000	0.000000	322.778429	1.933160	0.000000	
GBA_163         	14              	2005031         	0.000000	0.000000	134.827870	3.843962	0.000000	
GBA_164         	14              	2005030         	0.000000	0.000000	151.301837	0.081712	0.000000	
GBA_165         	14              	2003007         	0.000000	0.000000	585.477352	3.597205	0.000000	
GBA_166         	14              	2002009         	0.000000	0.000000	429.736787	2.064465	0.000000	
GBA_167         	14              	2003005         	0.000000	0.000000	548.342174	1.901954	0.000000	
GBA_168         	14              	2004006         	0.000000	0.000000	182.327909	2.971821	0.000000	
GBA_169         	14              	2004009         	0.000000	0.000000	260.478025	0.672105	0.000000	
GBA_170         	14              	2004013         	0.000000	0.000000	291.019969	0.463176	0.000000	
GBA_171         	14              	2004010         	0.000000	0.000000	158.653103	1.545132	0.000000	
GBA_172         	14              	2004014         	0.000000	0.000000	554.526996	3.847662	0.000000	
GBA_173         	14              	2001015         	0.000000	0.000000	303.649236	2.325471	0.000000	
GBA_174         	14              	2001015         	0.000000	0.000000	429.518893	2.325471	0.000000	
GBA_175         	14              	2001009         	0.000000	0.000000	320.829873	1.363194	0.000000	
GBA_176         	14              	2001009         	0.000000	0.000000	341.170236	1.363194	0.000000	
GBA_177         	14              	2001002         	0.000000	0.000000	414.472209	7.033622	0.000000	
GBA_178         	14              	1025006         	0.000000	0.000000	274.534366	0.850791	0.000000	
GBA_179         	14              	1025008         	0.000000	0.000000	792.978468	0.920311	0.000000	
GBA_180         	14              	1024013         	0.000000	0.000000	241.371782	0.785687	0.000000	
GBA_181         	14              	1024001         	0.000000	0.000000	244.850162	0.073598	0.000000	
GBA_182         	14              	1017036         	0.000000	0.000000	241.077814	3.433462	0.000000	
GBA_183         	14              	1018001         	0.000000	0.000000	166.422647	2.963373	0.000000	
GBA_184         	14              	1025001         	0.000000	0.000000	372.726018	0.478953	0.000000	
GBA_185         	14              	1025041         	0.000000	0.000000	297.158430	1.039848	0.000000	
GBA_186         	14              	1025041         	0.000000	0.000000	233.598047	1.039848	0.000000	
GBA_187         	14              	1025001         	0.000000	0.000000	161.615584	0.478953	0.000000	
GBA_188         	14              	1024013         	0.000000	0.000000	980.691655	0.785687	0.000000	
GBA_189         	14              	1017009         	0.000000	0.000000	594.583883	2.157426	0.000000	
GBA_190         	14              	1017051         	0.000000	0.000000	971.821109	0.413736	0.000000	
GBA_191         	14              	1017004         	0.000000	0.000000	1116.489590	0.696836	0.000000	
GBA_192         	14              	1017004         	0.000000	0.000000	705.432073	0.696836	0.000000	
GBA_193         	14              	1024055         	0.000000	0.000000	381.062331	1.350003	0.000000	
GBA_194         	14              	1024001         	0.000000	0.000000	237.958287	0.073598	0.000000	
GBA_195         	6               	0873026         	0.000000	0.000000	326.271157	5.093961	0.000000	
GBA_196         	6               	0873025         	0.000000	0.000000	221.713599	3.408033	0.000000	
GBA_197         	6               	0873067         	0.000000	0.000000	233.762393	2.199356	0.000000	
GBA_198         	6               	0873068         	0.000000	0.000000	243.600407	0.010732	0.000000	
GBA_199         	6               	0873068         	0.000000	0.000000	530.106319	0.010732	0.000000	
GBA_200         	6               	0873023         	0.000000	0.000000	180.371845	1.217101	0.000000	
GBA_201         	6               	0874022         	0.000000	0.000000	224.929862	1.034913	0.000000	
GBA_202         	6               	0874022         	0.000000	0.000000	424.261820	1.034913	0.000000	
GBA_203         	6               	0867012         	0.000000	0.000000	1381.817133	8.703850	0.000000	
GBA_204         	6               	0869003         	0.000000	0.000000	245.277257	0.210276	0.000000	
GBA_205         	6               	0869003         	0.000000	0.000000	802.756916	0.210276	0.000000	
GBA_206         	6               	0868023         	0.000000	0.000000	658.442396	0.592694	0.000000	
GBA_207         	6               	0868015         	0.000000	0.000000	126.635926	2.505970	0.000000	
GBA_208         	6               	0868011         	0.000000	0.000000	539.057449	0.424630	0.000000	
GBA_209         	6               	0867160         	0.000000	0.000000	434.887881	2.344987	0.000000	
GBA_210         	6               	0867170         	0.000000	0.000000	486.978339	4.509049	0.000000	
GBA_211         	6               	0867151         	0.000000	0.000000	329.454929	0.194203	0.000000	
GBA_212         	6               	0867009         	0.000000	0.000000	340.853826	1.441122	0.000000	
GBA_213         	6               	0868005         	0.000000	0.000000	570.316743	0.248651	0.000000	
GBA_214         	6               	0866006         	0.000000	0.000000	779.883469	2.028707	0.000000	
GBA_215         	6               	0873013         	0.000000	0.000000	248.250708	2.121099	0.000000	
GBA_216         	6               	0868005         	0.000000	0.000000	737.949465	0.248651	0.000000	
GBA_217         	6               	0868008         	0.000000	0.000000	467.919750	0.818373	0.000000	
GBA_218         	6               	0867017         	0.000000	0.000000	523.172345	2.920937	0.000000	
GBA_219         	6               	0866003         	0.000000	0.000000	734.788965	1.661485	0.000000	
GBA_220         	6               	0866001         	0.000000	0.000000	1198.779427	0.118800	0.000000	
GBA_221         	6               	0873012         	0.000000	0.000000	321.636431	2.360073	0.000000	
GBA_222         	6               	0873005         	0.000000	0.000000	135.767634	0.229040	0.000000	
GBA_223         	6               	0873008         	0.000000	0.000000	297.305543	1.537033	0.000000	
GBA_224         	6               	0873028         	0.000000	0.000000	163.491784	3.719394	0.000000	
GBA_225         	6               	0865030         	0.000000	0.000000	809.178085	4.443460	0.000000	
GBA_226         	6               	0865022         	0.000000	0.000000	404.721170	0.746098	0.000000	
GBA_227         	6               	0867017         	0.000000	0.000000	416.039427	2.920937	0.000000	
GBA_228         	6               	0868008         	0.000000	0.000000	286.134184	0.818373	0.000000	
GBA_229         	6               	0868011         	0.000000	0.000000	245.300019	0.424630	0.000000	
GBA_230         	6               	0863024         	0.000000	0.000000	233.197382	0.683839	0.000000	
GBA_231         	6               	0863020         	0.000000	0.000000	848.463447	0.716851	0.000000	
GBA_232         	6               	0863016         	0.000000	0.000000	203.133969	5.630930	0.000000	
GBA_233         	6               	0863015         	0.000000	0.000000	359.002907	5.358662	0.000000	
GBA_234         	6               	0863003         	0.000000	0.000000	224.611856	2.877384	0.000000	
GBA_235         	6               	0864005         	0.000000	0.000000	374.703798	1.085162	0.000000	
GBA_236         	6               	0873001         	0.000000	0.000000	227.340048	3.167538	0.000000	
GBA_237         	5               	0854148         	0.000000	0.000000	307.849477	1.995976	0.000000	
GBA_238         	5               	0854014         	0.000000	0.000000	254.481445	11.429905	0.000000	
GBA_239         	5               	0854106         	0.000000	0.000000	336.068152	1.426822	0.000000	
GBA_240         	5               	0854137         	0.000000	0.000000	269.884961	1.951883	0.000000	
GBA_241         	6               	0867008         	0.000000	0.000000	281.888920	2.649623	0.000000	
GBA_242         	6               	0867003         	0.000000	0.000000	240.233662	0.761297	0.000000	
GBA_243         	6               	0867003         	0.000000	0.000000	279.080845	0.761297	0.000000	
GBA_244         	6               	0865003         	0.000000	0.000000	294.657113	0.755750	0.000000	
GBA_245         	6               	0873023         	0.000000	0.000000	151.323942	1.217101	0.000000	
GBA_246         	6               	0874029         	0.000000	0.000000	140.387359	2.204162	0.000000	
GBA_247         	6               	0874029         	0.000000	0.000000	197.595113	2.204162	0.000000	
GBA_248         	6               	0874003         	0.000000	0.000000	286.968869	1.166952	0.000000	
GBA_249         	6               	0873014         	0.000000	0.000000	158.569253	6.950328	0.000000	
GBA_250         	6               	0873014         	0.000000	0.000000	236.824147	6.950328	0.000000	
GBA_251         	6               	0873005         	0.000000	0.000000	302.509233	0.229040	0.000000	
GBA_252         	6               	0868009         	0.000000	0.000000	263.550480	1.747291	0.000000	
GBA_253         	6               	0868015         	0.000000	0.000000	237.902167	2.505970	0.000000	
GBA_254         	9               	0834015         	0.000000	0.000000	743.914631	3.794169	0.000000	
GBA_255         	9               	0834012         	0.000000	0.000000	145.538361	1.068805	0.000000	
GBA_256         	9               	0834041         	0.000000	0.000000	565.277695	1.170604	0.000000	
GBA_257         	9               	0834057         	0.000000	0.000000	269.424774	0.400845	0.000000	
GBA_258         	9               	0834059         	0.000000	0.000000	164.587151	3.356893	0.000000	
GBA_259         	9               	0834061         	0.000000	0.000000	508.334417	2.705359	0.000000	
GBA_260         	9               	0834062         	0.000000	0.000000	375.695113	3.070738	0.000000	
GBA_261         	9               	0834085         	0.000000	0.000000	597.417635	3.936111	0.000000	
GBA_262         	9               	0835020         	0.000000	0.000000	624.509386	1.932760	0.000000	
GBA_263         	9               	0835042         	0.000000	0.000000	159.147697	1.157001	0.000000	
GBA_264         	9               	0872123         	0.000000	0.000000	687.493500	2.636196	0.000000	
GBA_265         	9               	0872139         	0.000000	0.000000	141.814326	2.194950	0.000000	
GBA_266         	9               	0872082         	0.000000	0.000000	296.026768	7.848472	0.000000	
GBA_267         	9               	0872109         	0.000000	0.000000	326.982894	6.412799	0.000000	
GBA_268         	9               	0872088         	0.000000	0.000000	942.088710	1.623072	0.000000	
GBA_269         	9               	0872087         	0.000000	0.000000	416.342857	1.483269	0.000000	
GBA_270         	9               	0872109         	0.000000	0.000000	223.832079	6.412799	0.000000	
GBA_271         	9               	0835009         	0.000000	0.000000	764.298462	1.919628	0.000000	
GBA_272         	9               	0835006         	0.000000	0.000000	244.188699	1.167400	0.000000	
GBA_273         	9               	0842001         	0.000000	0.000000	820.807176	1.357419	0.000000	
GBA_274         	9               	0842054         	0.000000	0.000000	374.506711	0.868360	0.000000	
GBA_275         	9               	0842002         	0.000000	0.000000	728.219653	5.659275	0.000000	
GBA_276         	9               	0842006         	0.000000	0.000000	885.599022	2.049403	0.000000	
GBA_277         	9               	0840009         	0.000000	0.000000	357.608137	0.138721	0.000000	
GBA_278         	9               	0840008         	0.000000	0.000000	562.605360	0.526164	0.000000	
GBA_279         	9               	0841005         	0.000000	0.000000	257.333912	1.011767	0.000000	
GBA_280         	9               	0846066         	0.000000	0.000000	391.289893	1.166001	0.000000	
GBA_281         	9               	0846019         	0.000000	0.000000	278.576320	0.640656	0.000000	
GBA_282         	9               	0845077         	0.000000	0.000000	580.013534	2.360666	0.000000	
GBA_283         	9               	0846012         	0.000000	0.000000	754.010695	4.520210	0.000000	
GBA_284         	9               	0845016         	0.000000	0.000000	637.434541	0.243813	0.000000	
GBA_285         	9               	0840005         	0.000000	0.000000	1089.671970	1.069332	0.000000	
GBA_286         	9               	0846060         	0.000000	0.000000	248.644895	0.355370	0.000000	
GBA_287         	9               	0846047         	0.000000	0.000000	348.517304	6.020687	0.000000	
GBA_288         	9               	0847063         	0.000000	0.000000	360.862812	1.023573	0.000000	