[TITLE]
Scenario Run :  BASE
Scenario Run :  BASE
Scenario Run :  BASE

[OPTIONS]
FLOW_UNITS          	LPS
INFILTRATION        	HORTON
FLOW_ROUTING        	DYNWAVE
START_DATE          	01/01/2002
START_TIME          	00:00:00
REPORT_START_DATE   	01/01/2002
REPORT_START_TIME   	00:00:00
END_DATE            	01/01/2002
END_TIME            	01:00:00
SWEEP_START         	01/01
SWEEP_END           	12/31
DRY_DAYS            	5.000000
REPORT_STEP         	00:01:00
WET_STEP            	01:00:00
DRY_STEP            	23:00:00
ROUTING_STEP        	0.001
ALLOW_PONDING       	NO
INERTIAL_DAMPING    	NONE
VARIABLE_STEP       	0.50
LENGTHENING_STEP    	0
MIN_SURFAREA        	0.001000
NORMAL_FLOW_LIMITED 	BOTH
SKIP_STEADY_STATE   	NO
FORCE_MAIN_EQUATION 	H-W
LINK_OFFSETS        	DEPTH
MIN_SLOPE           	0
; Added Parameters for QA/QC
MAX_PROCESSORS      	NO
BYPASS              	YES
ThetaStorage        	NO
MAX_ITERATIONS      	8
MIN_ITERATIONS      	2
TOLERANCE           	0.000100
RELAXATION          	0.50
AREAWEIGHT          	1.0
HYDRAULICWEIGHT     	1.0
DWF_GLOBAL          	1.0
RDII_GLOBAL         	1.0
DEPTH_UNITS         	
SaveAllData         	NO

[FILES]
SAVE	HOTSTART	"hot.HSF"

[EVAPORATION]
;;Type      	Parameters
;;----------	----------
CONSTANT    	0.0
DRY_ONLY     NO

[JUNCTIONS]
;;              	Invert    	Max.      	Init.     	Surcharge 	Ponded    
;;Name          	Elev.     	Depth     	Depth     	Depth     	Area      
;;--------------	----------	----------	----------	----------	----------
1               	0.336000  	1.000000  	0.000000  	0.000000  	0.000000  
2               	0.336000  	1.000000  	0.000000  	0.000000  	0.000000  
3               	0.168000  	1.000000  	0.000000  	0.000000  	0.000000  
4               	0.000000  	1.000000  	0.000000  	0.000000  	0.000000  
A1              	0.336000  	1.000000  	0.000000  	0.000000  	0.000000  
A2              	0.336000  	1.000000  	0.000000  	0.000000  	0.000000  
A3              	0.168000  	1.000000  	0.000000  	0.000000  	0.000000  
A4              	0.000000  	1.000000  	0.000000  	0.000000  	0.000000  
A5              	-0.015000 	1.000000  	0.000000  	0.000000  	0.000000  
B1              	0.336000  	1.000000  	0.000000  	0.000000  	0.000000  
B10             	-0.024000 	1.000000  	0.000000  	0.000000  	0.000000  
B11             	-0.028000 	1.000000  	0.000000  	0.000000  	0.000000  
B2              	0.336000  	1.000000  	0.000000  	0.000000  	0.000000  
B3              	0.168000  	1.000000  	0.000000  	0.000000  	0.000000  
B4              	0.000000  	1.000000  	0.000000  	0.000000  	0.000000  
B5              	-0.004000 	1.000000  	0.000000  	0.000000  	0.000000  
B6              	-0.008000 	1.000000  	0.000000  	0.000000  	0.000000  
B7              	-0.012000 	1.000000  	0.000000  	0.000000  	0.000000  
B8              	-0.016000 	1.000000  	0.000000  	0.000000  	0.000000  
B9              	-0.020000 	1.000000  	0.000000  	0.000000  	0.000000  
C1              	0.336000  	1.000000  	0.000000  	0.000000  	0.000000  
C10             	-0.012000 	1.000000  	0.000000  	0.000000  	0.000000  
C11             	-0.014000 	1.000000  	0.000000  	0.000000  	0.000000  
C12             	-0.016000 	1.000000  	0.000000  	0.000000  	0.000000  
C13             	-0.018000 	1.000000  	0.000000  	0.000000  	0.000000  
C14             	-0.020000 	1.000000  	0.000000  	0.000000  	0.000000  
C15             	-0.022000 	1.000000  	0.000000  	0.000000  	0.000000  
C16             	-0.024000 	1.000000  	0.000000  	0.000000  	0.000000  
C17             	-0.026000 	1.000000  	0.000000  	0.000000  	0.000000  
C18             	-0.028000 	1.000000  	0.000000  	0.000000  	0.000000  
C2              	0.336000  	1.000000  	0.000000  	0.000000  	0.000000  
C3              	0.168000  	1.000000  	0.000000  	0.000000  	0.000000  
C4              	0.000000  	1.000000  	0.000000  	0.000000  	0.000000  
C5              	-0.002000 	1.000000  	0.000000  	0.000000  	0.000000  
C6              	-0.004000 	1.000000  	0.000000  	0.000000  	0.000000  
C7              	-0.006000 	1.000000  	0.000000  	0.000000  	0.000000  
C8              	-0.008000 	1.000000  	0.000000  	0.000000  	0.000000  
C9              	-0.010000 	1.000000  	0.000000  	0.000000  	0.000000  
D1              	0.336000  	1.000000  	0.000000  	0.000000  	0.000000  
D10             	-0.001200 	1.000000  	0.000000  	0.000000  	0.000000  
D100            	-0.019200 	1.000000  	0.000000  	0.000000  	0.000000  
D101            	-0.019400 	1.000000  	0.000000  	0.000000  	0.000000  
D102            	-0.019600 	1.000000  	0.000000  	0.000000  	0.000000  
D103            	-0.019800 	1.000000  	0.000000  	0.000000  	0.000000  
D104            	-0.020000 	1.000000  	0.000000  	0.000000  	0.000000  
D105            	-0.020200 	1.000000  	0.000000  	0.000000  	0.000000  
D106            	-0.020400 	1.000000  	0.000000  	0.000000  	0.000000  
D107            	-0.020600 	1.000000  	0.000000  	0.000000  	0.000000  
D108            	-0.020800 	1.000000  	0.000000  	0.000000  	0.000000  
D109            	-0.021000 	1.000000  	0.000000  	0.000000  	0.000000  
D11             	-0.001400 	1.000000  	0.000000  	0.000000  	0.000000  
D110            	-0.021200 	1.000000  	0.000000  	0.000000  	0.000000  
D111            	-0.021400 	1.000000  	0.000000  	0.000000  	0.000000  
D112            	-0.021600 	1.000000  	0.000000  	0.000000  	0.000000  
D113            	-0.021800 	1.000000  	0.000000  	0.000000  	0.000000  
D114            	-0.022000 	1.000000  	0.000000  	0.000000  	0.000000  
D115            	-0.022200 	1.000000  	0.000000  	0.000000  	0.000000  
D116            	-0.022400 	1.000000  	0.000000  	0.000000  	0.000000  
D117            	-0.022600 	1.000000  	0.000000  	0.000000  	0.000000  
D118            	-0.022800 	1.000000  	0.000000  	0.000000  	0.000000  
D119            	-0.023000 	1.000000  	0.000000  	0.000000  	0.000000  
D12             	-0.001600 	1.000000  	0.000000  	0.000000  	0.000000  
D120            	-0.023200 	1.000000  	0.000000  	0.000000  	0.000000  
D121            	-0.023400 	1.000000  	0.000000  	0.000000  	0.000000  
D122            	-0.023600 	1.000000  	0.000000  	0.000000  	0.000000  
D123            	-0.023800 	1.000000  	0.000000  	0.000000  	0.000000  
D124            	-0.024000 	1.000000  	0.000000  	0.000000  	0.000000  
D125            	-0.024200 	1.000000  	0.000000  	0.000000  	0.000000  
D126            	-0.024400 	1.000000  	0.000000  	0.000000  	0.000000  
D127            	-0.024600 	1.000000  	0.000000  	0.000000  	0.000000  
D128            	-0.024800 	1.000000  	0.000000  	0.000000  	0.000000  
D129            	-0.025000 	1.000000  	0.000000  	0.000000  	0.000000  
D13             	-0.001800 	1.000000  	0.000000  	0.000000  	0.000000  
D130            	-0.025200 	1.000000  	0.000000  	0.000000  	0.000000  
D131            	-0.025400 	1.000000  	0.000000  	0.000000  	0.000000  
D132            	-0.025600 	1.000000  	0.000000  	0.000000  	0.000000  
D133            	-0.025800 	1.000000  	0.000000  	0.000000  	0.000000  
D134            	-0.026000 	1.000000  	0.000000  	0.000000  	0.000000  
D135            	-0.026200 	1.000000  	0.000000  	0.000000  	0.000000  
D136            	-0.026400 	1.000000  	0.000000  	0.000000  	0.000000  
D137            	-0.026600 	1.000000  	0.000000  	0.000000  	0.000000  
D138            	-0.026800 	1.000000  	0.000000  	0.000000  	0.000000  
D139            	-0.027000 	1.000000  	0.000000  	0.000000  	0.000000  
D14             	-0.002000 	1.000000  	0.000000  	0.000000  	0.000000  
D140            	-0.027200 	1.000000  	0.000000  	0.000000  	0.000000  
D141            	-0.027400 	1.000000  	0.000000  	0.000000  	0.000000  
D142            	-0.027600 	1.000000  	0.000000  	0.000000  	0.000000  
D143            	-0.027800 	1.000000  	0.000000  	0.000000  	0.000000  
D144            	-0.028000 	1.000000  	0.000000  	0.000000  	0.000000  
D145            	-0.028200 	1.000000  	0.000000  	0.000000  	0.000000  
D146            	-0.028400 	1.000000  	0.000000  	0.000000  	0.000000  
D147            	-0.028600 	1.000000  	0.000000  	0.000000  	0.000000  
D148            	-0.028800 	1.000000  	0.000000  	0.000000  	0.000000  
D149            	-0.029000 	1.000000  	0.000000  	0.000000  	0.000000  
D15             	-0.002200 	1.000000  	0.000000  	0.000000  	0.000000  
D150            	-0.029200 	1.000000  	0.000000  	0.000000  	0.000000  
D151            	-0.029400 	1.000000  	0.000000  	0.000000  	0.000000  
D152            	-0.029600 	1.000000  	0.000000  	0.000000  	0.000000  
D153            	-0.029800 	1.000000  	0.000000  	0.000000  	0.000000  
D16             	-0.002400 	1.000000  	0.000000  	0.000000  	0.000000  
D17             	-0.002600 	1.000000  	0.000000  	0.000000  	0.000000  
D18             	-0.002800 	1.000000  	0.000000  	0.000000  	0.000000  
D19             	-0.003000 	1.000000  	0.000000  	0.000000  	0.000000  
D2              	0.336000  	1.000000  	0.000000  	0.000000  	0.000000  
D20             	-0.003200 	1.000000  	0.000000  	0.000000  	0.000000  
D21             	-0.003400 	1.000000  	0.000000  	0.000000  	0.000000  
D22             	-0.003600 	1.000000  	0.000000  	0.000000  	0.000000  
D23             	-0.003800 	1.000000  	0.000000  	0.000000  	0.000000  
D24             	-0.004000 	1.000000  	0.000000  	0.000000  	0.000000  
D25             	-0.004200 	1.000000  	0.000000  	0.000000  	0.000000  
D26             	-0.004400 	1.000000  	0.000000  	0.000000  	0.000000  
D27             	-0.004600 	1.000000  	0.000000  	0.000000  	0.000000  
D28             	-0.004800 	1.000000  	0.000000  	0.000000  	0.000000  
D29             	-0.005000 	1.000000  	0.000000  	0.000000  	0.000000  
D3              	0.168000  	1.000000  	0.000000  	0.000000  	0.000000  
D30             	-0.005200 	1.000000  	0.000000  	0.000000  	0.000000  
D31             	-0.005400 	1.000000  	0.000000  	0.000000  	0.000000  
D32             	-0.005600 	1.000000  	0.000000  	0.000000  	0.000000  
D33             	-0.005800 	1.000000  	0.000000  	0.000000  	0.000000  
D34             	-0.006000 	1.000000  	0.000000  	0.000000  	0.000000  
D35             	-0.006200 	1.000000  	0.000000  	0.000000  	0.000000  
D36             	-0.006400 	1.000000  	0.000000  	0.000000  	0.000000  
D37             	-0.006600 	1.000000  	0.000000  	0.000000  	0.000000  
D38             	-0.006800 	1.000000  	0.000000  	0.000000  	0.000000  
D39             	-0.007000 	1.000000  	0.000000  	0.000000  	0.000000  
D4              	0.000000  	1.000000  	0.000000  	0.000000  	0.000000  
D40             	-0.007200 	1.000000  	0.000000  	0.000000  	0.000000  
D41             	-0.007400 	1.000000  	0.000000  	0.000000  	0.000000  
D42             	-0.007600 	1.000000  	0.000000  	0.000000  	0.000000  
D43             	-0.007800 	1.000000  	0.000000  	0.000000  	0.000000  
D44             	-0.008000 	1.000000  	0.000000  	0.000000  	0.000000  
D45             	-0.008200 	1.000000  	0.000000  	0.000000  	0.000000  
D46             	-0.008400 	1.000000  	0.000000  	0.000000  	0.000000  
D47             	-0.008600 	1.000000  	0.000000  	0.000000  	0.000000  
D48             	-0.008800 	1.000000  	0.000000  	0.000000  	0.000000  
D49             	-0.009000 	1.000000  	0.000000  	0.000000  	0.000000  
D5              	-0.000200 	1.000000  	0.000000  	0.000000  	0.000000  
D50             	-0.009200 	1.000000  	0.000000  	0.000000  	0.000000  
D51             	-0.009400 	1.000000  	0.000000  	0.000000  	0.000000  
D52             	-0.009600 	1.000000  	0.000000  	0.000000  	0.000000  
D53             	-0.009800 	1.000000  	0.000000  	0.000000  	0.000000  
D54             	-0.010000 	1.000000  	0.000000  	0.000000  	0.000000  
D55             	-0.010200 	1.000000  	0.000000  	0.000000  	0.000000  
D56             	-0.010400 	1.000000  	0.000000  	0.000000  	0.000000  
D57             	-0.010600 	1.000000  	0.000000  	0.000000  	0.000000  
D58             	-0.010800 	1.000000  	0.000000  	0.000000  	0.000000  
D59             	-0.011000 	1.000000  	0.000000  	0.000000  	0.000000  
D6              	-0.000400 	1.000000  	0.000000  	0.000000  	0.000000  
D60             	-0.011200 	1.000000  	0.000000  	0.000000  	0.000000  
D61             	-0.011400 	1.000000  	0.000000  	0.000000  	0.000000  
D62             	-0.011600 	1.000000  	0.000000  	0.000000  	0.000000  
D63             	-0.011800 	1.000000  	0.000000  	0.000000  	0.000000  
D64             	-0.012000 	1.000000  	0.000000  	0.000000  	0.000000  
D65             	-0.012200 	1.000000  	0.000000  	0.000000  	0.000000  
D66             	-0.012400 	1.000000  	0.000000  	0.000000  	0.000000  
D67             	-0.012600 	1.000000  	0.000000  	0.000000  	0.000000  
D68             	-0.012800 	1.000000  	0.000000  	0.000000  	0.000000  
D69             	-0.013000 	1.000000  	0.000000  	0.000000  	0.000000  
D7              	-0.000600 	1.000000  	0.000000  	0.000000  	0.000000  
D70             	-0.013200 	1.000000  	0.000000  	0.000000  	0.000000  
D71             	-0.013400 	1.000000  	0.000000  	0.000000  	0.000000  
D72             	-0.013600 	1.000000  	0.000000  	0.000000  	0.000000  
D73             	-0.013800 	1.000000  	0.000000  	0.000000  	0.000000  
D74             	-0.014000 	1.000000  	0.000000  	0.000000  	0.000000  
D75             	-0.014200 	1.000000  	0.000000  	0.000000  	0.000000  
D76             	-0.014400 	1.000000  	0.000000  	0.000000  	0.000000  
D77             	-0.014600 	1.000000  	0.000000  	0.000000  	0.000000  
D78             	-0.014800 	1.000000  	0.000000  	0.000000  	0.000000  
D79             	-0.015000 	1.000000  	0.000000  	0.000000  	0.000000  
D8              	-0.000800 	1.000000  	0.000000  	0.000000  	0.000000  
D80             	-0.015200 	1.000000  	0.000000  	0.000000  	0.000000  
D81             	-0.015400 	1.000000  	0.000000  	0.000000  	0.000000  
D82             	-0.015600 	1.000000  	0.000000  	0.000000  	0.000000  
D83             	-0.015800 	1.000000  	0.000000  	0.000000  	0.000000  
D84             	-0.016000 	1.000000  	0.000000  	0.000000  	0.000000  
D85             	-0.016200 	1.000000  	0.000000  	0.000000  	0.000000  
D86             	-0.016400 	1.000000  	0.000000  	0.000000  	0.000000  
D87             	-0.016600 	1.000000  	0.000000  	0.000000  	0.000000  
D88             	-0.016800 	1.000000  	0.000000  	0.000000  	0.000000  
D89             	-0.017000 	1.000000  	0.000000  	0.000000  	0.000000  
D9              	-0.001000 	1.000000  	0.000000  	0.000000  	0.000000  
D90             	-0.017200 	1.000000  	0.000000  	0.000000  	0.000000  
D91             	-0.017400 	1.000000  	0.000000  	0.000000  	0.000000  
D92             	-0.017600 	1.000000  	0.000000  	0.000000  	0.000000  
D93             	-0.017800 	1.000000  	0.000000  	0.000000  	0.000000  
D94             	-0.018000 	1.000000  	0.000000  	0.000000  	0.000000  
D95             	-0.018200 	1.000000  	0.000000  	0.000000  	0.000000  
D96             	-0.018400 	1.000000  	0.000000  	0.000000  	0.000000  
D97             	-0.018600 	1.000000  	0.000000  	0.000000  	0.000000  
D98             	-0.018800 	1.000000  	0.000000  	0.000000  	0.000000  
D99             	-0.019000 	1.000000  	0.000000  	0.000000  	0.000000  

[OUTFALLS]
;;              	Invert    	Outfall   	Stage/Table     	Tide
;;Name          	Elev.     	Type      	Time Series     	Gate
;;--------------	----------	----------	----------------	----
OUTFALL1        	-0.030000 	FREE      	                	NO
OUTFALLA        	-0.030000 	FREE      	                	NO
OUTFALLB        	-0.030000 	FREE      	                	NO
OUTFALLC        	-0.030000 	FREE      	                	NO
OUTFALLD        	-0.030000 	FREE      	                	NO

[CONDUITS]
;;              	Inlet           	Outlet          	          	Manning   	Inlet     	Outlet    	Init.     	Max.      
;;Name          	Node            	Node            	Length    	N         	Offset    	Offset    	Flow      	Flow      
;;--------------	----------------	----------------	----------	----------	----------	----------	----------	----------
1               	1               	2               	3.000000  	0.011000  	0.000000  	0.000000  	0.000000  	0.000000  
2               	2               	3               	1.000000  	0.011000  	0.000000  	0.000000  	0.000000  	0.000000  
3               	3               	4               	1.000000  	0.011000  	0.000000  	0.000000  	0.000000  	0.000000  
5               	4               	OUTFALL1        	15.000000 	0.011000  	0.000000  	0.000000  	0.000000  	0.000000  
A1              	A1              	A2              	3.000000  	0.011000  	0.000000  	0.000000  	0.000000  	0.000000  
A2              	A2              	A3              	1.000000  	0.011000  	0.000000  	0.000000  	0.000000  	0.000000  
A3              	A3              	A4              	1.000000  	0.011000  	0.000000  	0.000000  	0.000000  	0.000000  
A4              	A4              	A5              	7.500000  	0.011000  	0.000000  	0.000000  	0.000000  	0.000000  
A5              	A5              	OUTFALLA        	7.500000  	0.011000  	0.000000  	0.000000  	0.000000  	0.000000  
B1              	B1              	B2              	3.000000  	0.011000  	0.000000  	0.000000  	0.000000  	0.000000  
B10             	B9              	B10             	2.000000  	0.011000  	0.000000  	0.000000  	0.000000  	0.000000  
B11             	B10             	B11             	2.000000  	0.011000  	0.000000  	0.000000  	0.000000  	0.000000  
B12             	B11             	OUTFALLB        	1.000000  	0.011000  	0.000000  	0.000000  	0.000000  	0.000000  
B2              	B2              	B3              	1.000000  	0.011000  	0.000000  	0.000000  	0.000000  	0.000000  
B3              	B3              	B4              	1.000000  	0.011000  	0.000000  	0.000000  	0.000000  	0.000000  
B5              	B4              	B5              	2.000000  	0.011000  	0.000000  	0.000000  	0.000000  	0.000000  
B6              	B5              	B6              	2.000000  	0.011000  	0.000000  	0.000000  	0.000000  	0.000000  
B7              	B6              	B7              	2.000000  	0.011000  	0.000000  	0.000000  	0.000000  	0.000000  
B8              	B7              	B8              	2.000000  	0.011000  	0.000000  	0.000000  	0.000000  	0.000000  
B9              	B8              	B9              	2.000000  	0.011000  	0.000000  	0.000000  	0.000000  	0.000000  
C1              	C1              	C2              	3.000000  	0.011000  	0.000000  	0.000000  	0.000000  	0.000000  
C10             	C9              	C10             	1.000000  	0.011000  	0.000000  	0.000000  	0.000000  	0.000000  
C11             	C10             	C11             	1.000000  	0.011000  	0.000000  	0.000000  	0.000000  	0.000000  
C12             	C11             	C12             	1.000000  	0.011000  	0.000000  	0.000000  	0.000000  	0.000000  
C13             	C12             	C13             	1.000000  	0.011000  	0.000000  	0.000000  	0.000000  	0.000000  
C14             	C13             	C14             	1.000000  	0.011000  	0.000000  	0.000000  	0.000000  	0.000000  
C15             	C14             	C15             	1.000000  	0.011000  	0.000000  	0.000000  	0.000000  	0.000000  
C16             	C15             	C16             	1.000000  	0.011000  	0.000000  	0.000000  	0.000000  	0.000000  
C17             	C16             	C17             	1.000000  	0.011000  	0.000000  	0.000000  	0.000000  	0.000000  
C18             	C17             	C18             	1.000000  	0.011000  	0.000000  	0.000000  	0.000000  	0.000000  
C19             	C18             	OUTFALLC        	1.000000  	0.011000  	0.000000  	0.000000  	0.000000  	0.000000  
C2              	C2              	C3              	1.000000  	0.011000  	0.000000  	0.000000  	0.000000  	0.000000  
C3              	C3              	C4              	1.000000  	0.011000  	0.000000  	0.000000  	0.000000  	0.000000  
C5              	C4              	C5              	1.000000  	0.011000  	0.000000  	0.000000  	0.000000  	0.000000  
C6              	C5              	C6              	1.000000  	0.011000  	0.000000  	0.000000  	0.000000  	0.000000  
C7              	C6              	C7              	1.000000  	0.011000  	0.000000  	0.000000  	0.000000  	0.000000  
C8              	C7              	C8              	1.000000  	0.011000  	0.000000  	0.000000  	0.000000  	0.000000  
C9              	C8              	C9              	1.000000  	0.011000  	0.000000  	0.000000  	0.000000  	0.000000  
D1              	D1              	D2              	3.000000  	0.011000  	0.000000  	0.000000  	0.000000  	0.000000  
D10             	D9              	D10             	0.100000  	0.011000  	0.000000  	0.000000  	0.000000  	0.000000  
D100            	D99             	D100            	0.100000  	0.011000  	0.000000  	0.000000  	0.000000  	0.000000  
D101            	D100            	D101            	0.100000  	0.011000  	0.000000  	0.000000  	0.000000  	0.000000  
D102            	D101            	D102            	0.100000  	0.011000  	0.000000  	0.000000  	0.000000  	0.000000  
D103            	D102            	D103            	0.100000  	0.011000  	0.000000  	0.000000  	0.000000  	0.000000  
D104            	D103            	D104            	0.100000  	0.011000  	0.000000  	0.000000  	0.000000  	0.000000  
D105            	D104            	D105            	0.100000  	0.011000  	0.000000  	0.000000  	0.000000  	0.000000  
D106            	D105            	D106            	0.100000  	0.011000  	0.000000  	0.000000  	0.000000  	0.000000  
D107            	D106            	D107            	0.100000  	0.011000  	0.000000  	0.000000  	0.000000  	0.000000  
D108            	D107            	D108            	0.100000  	0.011000  	0.000000  	0.000000  	0.000000  	0.000000  
D109            	D108            	D109            	0.100000  	0.011000  	0.000000  	0.000000  	0.000000  	0.000000  
D11             	D10             	D11             	0.100000  	0.011000  	0.000000  	0.000000  	0.000000  	0.000000  
D110            	D109            	D110            	0.100000  	0.011000  	0.000000  	0.000000  	0.000000  	0.000000  
D111            	D110            	D111            	0.100000  	0.011000  	0.000000  	0.000000  	0.000000  	0.000000  
D112            	D111            	D112            	0.100000  	0.011000  	0.000000  	0.000000  	0.000000  	0.000000  
D113            	D112            	D113            	0.100000  	0.011000  	0.000000  	0.000000  	0.000000  	0.000000  
D114            	D113            	D114            	0.100000  	0.011000  	0.000000  	0.000000  	0.000000  	0.000000  
D115            	D114            	D115            	0.100000  	0.011000  	0.000000  	0.000000  	0.000000  	0.000000  
D116            	D115            	D116            	0.100000  	0.011000  	0.000000  	0.000000  	0.000000  	0.000000  
D117            	D116            	D117            	0.100000  	0.011000  	0.000000  	0.000000  	0.000000  	0.000000  
D118            	D117            	D118            	0.100000  	0.011000  	0.000000  	0.000000  	0.000000  	0.000000  
D119            	D118            	D119            	0.100000  	0.011000  	0.000000  	0.000000  	0.000000  	0.000000  
D12             	D11             	D12             	0.100000  	0.011000  	0.000000  	0.000000  	0.000000  	0.000000  
D120            	D119            	D120            	0.100000  	0.011000  	0.000000  	0.000000  	0.000000  	0.000000  
D121            	D120            	D121            	0.100000  	0.011000  	0.000000  	0.000000  	0.000000  	0.000000  
D122            	D121            	D122            	0.100000  	0.011000  	0.000000  	0.000000  	0.000000  	0.000000  
D123            	D122            	D123            	0.100000  	0.011000  	0.000000  	0.000000  	0.000000  	0.000000  
D124            	D123            	D124            	0.100000  	0.011000  	0.000000  	0.000000  	0.000000  	0.000000  
D125            	D124            	D125            	0.100000  	0.011000  	0.000000  	0.000000  	0.000000  	0.000000  
D126            	D125            	D126            	0.100000  	0.011000  	0.000000  	0.000000  	0.000000  	0.000000  
D127            	D126            	D127            	0.100000  	0.011000  	0.000000  	0.000000  	0.000000  	0.000000  
D128            	D127            	D128            	0.100000  	0.011000  	0.000000  	0.000000  	0.000000  	0.000000  
D129            	D128            	D129            	0.100000  	0.011000  	0.000000  	0.000000  	0.000000  	0.000000  
D13             	D12             	D13             	0.100000  	0.011000  	0.000000  	0.000000  	0.000000  	0.000000  
D130            	D129            	D130            	0.100000  	0.011000  	0.000000  	0.000000  	0.000000  	0.000000  
D131            	D130            	D131            	0.100000  	0.011000  	0.000000  	0.000000  	0.000000  	0.000000  
D132            	D131            	D132            	0.100000  	0.011000  	0.000000  	0.000000  	0.000000  	0.000000  
D133            	D132            	D133            	0.100000  	0.011000  	0.000000  	0.000000  	0.000000  	0.000000  
D134            	D133            	D134            	0.100000  	0.011000  	0.000000  	0.000000  	0.000000  	0.000000  
D135            	D134            	D135            	0.100000  	0.011000  	0.000000  	0.000000  	0.000000  	0.000000  
D136            	D135            	D136            	0.100000  	0.011000  	0.000000  	0.000000  	0.000000  	0.000000  
D137            	D136            	D137            	0.100000  	0.011000  	0.000000  	0.000000  	0.000000  	0.000000  
D138            	D137            	D138            	0.100000  	0.011000  	0.000000  	0.000000  	0.000000  	0.000000  
D139            	D138            	D139            	0.100000  	0.011000  	0.000000  	0.000000  	0.000000  	0.000000  
D14             	D13             	D14             	0.100000  	0.011000  	0.000000  	0.000000  	0.000000  	0.000000  
D140            	D139            	D140            	0.100000  	0.011000  	0.000000  	0.000000  	0.000000  	0.000000  
D141            	D140            	D141            	0.100000  	0.011000  	0.000000  	0.000000  	0.000000  	0.000000  
D142            	D141            	D142            	0.100000  	0.011000  	0.000000  	0.000000  	0.000000  	0.000000  
D143            	D142            	D143            	0.100000  	0.011000  	0.000000  	0.000000  	0.000000  	0.000000  
D144            	D143            	D144            	0.100000  	0.011000  	0.000000  	0.000000  	0.000000  	0.000000  
D145            	D144            	D145            	0.100000  	0.011000  	0.000000  	0.000000  	0.000000  	0.000000  
D146            	D145            	D146            	0.100000  	0.011000  	0.000000  	0.000000  	0.000000  	0.000000  
D147            	D146            	D147            	0.100000  	0.011000  	0.000000  	0.000000  	0.000000  	0.000000  
D148            	D147            	D148            	0.100000  	0.011000  	0.000000  	0.000000  	0.000000  	0.000000  
D149            	D148            	D149            	0.100000  	0.011000  	0.000000  	0.000000  	0.000000  	0.000000  
D15             	D14             	D15             	0.100000  	0.011000  	0.000000  	0.000000  	0.000000  	0.000000  
D150            	D149            	D150            	0.100000  	0.011000  	0.000000  	0.000000  	0.000000  	0.000000  
D151            	D150            	D151            	0.100000  	0.011000  	0.000000  	0.000000  	0.000000  	0.000000  
D152            	D151            	D152            	0.100000  	0.011000  	0.000000  	0.000000  	0.000000  	0.000000  
D153            	D152            	D153            	0.100000  	0.011000  	0.000000  	0.000000  	0.000000  	0.000000  
D154            	D153            	OUTFALLD        	0.100000  	0.011000  	0.000000  	0.000000  	0.000000  	0.000000  
D16             	D15             	D16             	0.100000  	0.011000  	0.000000  	0.000000  	0.000000  	0.000000  
D17             	D16             	D17             	0.100000  	0.011000  	0.000000  	0.000000  	0.000000  	0.000000  
D18             	D17             	D18             	0.100000  	0.011000  	0.000000  	0.000000  	0.000000  	0.000000  
D19             	D18             	D19             	0.100000  	0.011000  	0.000000  	0.000000  	0.000000  	0.000000  
D2              	D2              	D3              	1.000000  	0.011000  	0.000000  	0.000000  	0.000000  	0.000000  
D20             	D19             	D20             	0.100000  	0.011000  	0.000000  	0.000000  	0.000000  	0.000000  
D21             	D20             	D21             	0.100000  	0.011000  	0.000000  	0.000000  	0.000000  	0.000000  
D22             	D21             	D22             	0.100000  	0.011000  	0.000000  	0.000000  	0.000000  	0.000000  
D23             	D22             	D23             	0.100000  	0.011000  	0.000000  	0.000000  	0.000000  	0.000000  
D24             	D23             	D24             	0.100000  	0.011000  	0.000000  	0.000000  	0.000000  	0.000000  
D25             	D24             	D25             	0.100000  	0.011000  	0.000000  	0.000000  	0.000000  	0.000000  
D26             	D25             	D26             	0.100000  	0.011000  	0.000000  	0.000000  	0.000000  	0.000000  
D27             	D26             	D27             	0.100000  	0.011000  	0.000000  	0.000000  	0.000000  	0.000000  
D28             	D27             	D28             	0.100000  	0.011000  	0.000000  	0.000000  	0.000000  	0.000000  
D29             	D28             	D29             	0.100000  	0.011000  	0.000000  	0.000000  	0.000000  	0.000000  
D3              	D3              	D4              	1.000000  	0.011000  	0.000000  	0.000000  	0.000000  	0.000000  
D30             	D29             	D30             	0.100000  	0.011000  	0.000000  	0.000000  	0.000000  	0.000000  
D31             	D30             	D31             	0.100000  	0.011000  	0.000000  	0.000000  	0.000000  	0.000000  