[TITLE]
;;Project Title/Notes
Scenario Run :  INITIALDEPTH

[OPTIONS]
;;Option             Value
FLOW_UNITS           CFS
INFILTRATION         CURVE_NUMBER
FLOW_ROUTING         DYNWAVE
LINK_OFFSETS         DEPTH
MIN_SLOPE            0
ALLOW_PONDING        YES
SKIP_STEADY_STATE    NO

START_DATE           01/01/1988
START_TIME           00:00:00
REPORT_START_DATE    01/01/1988
REPORT_START_TIME    00:00:00
END_DATE             01/01/1988
END_TIME             08:00:00
SWEEP_START          01/01
SWEEP_END            12/31
DRY_DAYS             0.000000
REPORT_STEP          00:01:00
WET_STEP             00:15:00
DRY_STEP             01:00:00
ROUTING_STEP         0:00:10 

INERTIAL_DAMPING     NONE
NORMAL_FLOW_LIMITED  BOTH
FORCE_MAIN_EQUATION  H-W
VARIABLE_STEP        0.75
LENGTHENING_STEP     10
MIN_SURFAREA         12.566000
MAX_TRIALS           4
HEAD_TOLERANCE       0.005000
SYS_FLOW_TOL         5
LAT_FLOW_TOL         5
MINIMUM_STEP         0.5
THREADS              1

[FILES]
;;Interfacing Files
SAVE HOTSTART "D:\2016PC\Summer2014\hotStart.HSF"

[EVAPORATION]
;;Data Source    Parameters
;;-------------- ----------------
CONSTANT         0.600000
DRY_ONLY         NO

[JUNCTIONS]
;;Name           Elevation  MaxDepth   InitDepth  SurDepth   Aponded   
;;-------------- ---------- ---------- ---------- ---------- ----------
10309C           101.600000 9.400000   1.000000   0.000000   0.000000  
10309D           101.600000 9.400000   1.000000   0.000000   0.000000  
10309E           101.600000 9.400000   1.000000   0.000000   0.000000  
15009C           111.500000 13.500000  1.000000   0.000000   0.000000  
15009D           111.500000 13.500000  1.000000   0.000000   0.000000  
15009E           121.000000 13.500000  1.000000   50.000000  0.000000  
16009C           102.000000 18.000000  1.000000   0.000000   0.000000  
16009D           102.000000 18.000000  1.000000   0.000000   0.000000  
16009E           102.000000 18.000000  1.000000   0.000000   0.000000  
16109C           102.800000 22.200000  1.000000   0.000000   0.000000  
16109D           102.800000 22.200000  1.000000   0.000000   0.000000  
16109E           102.800000 22.200000  1.000000   0.000000   0.000000  
; 4th network or extran example 4
80408C           124.600000 2.000000   1.000000   0.000000   0.000000  
; 5th network or extran example 5
80408D           124.600000 13.400000  1.000000   0.000000   0.000000  
; 6th network or extran example 7
80408E           124.600000 13.400000  1.000000   0.000000   0.000000  
80608C           118.300000 16.700000  1.000000   0.000000   0.000000  
80608D           118.300000 16.700000  1.000000   0.000000   0.000000  
80608E           118.300000 16.700000  1.000000   0.000000   0.000000  
81009C           128.200000 8.800000   1.000000   0.000000   0.000000  
81009D           128.200000 8.800000   1.000000   0.000000   0.000000  
81009E           128.200000 8.800000   1.000000   0.000000   0.000000  
81309C           117.500000 12.500000  1.000000   0.000000   0.000000  
81309D           117.500000 12.500000  1.000000   0.000000   0.000000  
81309E           117.500000 12.500000  1.000000   0.000000   0.000000  
82308D           112.300000 42.700000  1.000000   0.000000   0.000000  
82309C           112.300000 42.700000  1.000000   0.000000   0.000000  

[OUTFALLS]
;;Name           Elevation  Type       Stage Data       Gated    Route To        
;;-------------- ---------- ---------- ---------------- -------- ----------------
10208C           89.900000  FREE                        NO                       
10208D           89.900000  FREE                        NO                       
10208E           89.900000  FREE                        NO                       

[STORAGE]
;;Name           Elev.    MaxDepth   InitDepth  Shape      Curve Name/Params            N/A      Fevap    Psi      Ksat     IMD     
;;-------------- -------- ---------- ----------- ---------- ---------------------------- -------- --------          -------- --------
82309D           112.300000 42.700000  0.000000   FUNCTIONAL 800.000000  0.000000  0.000000 0.000000 0.000000
WETWELL          112.300000 21.000000  0.000000   FUNCTIONAL 15.000000  0.000000  0.000000 0.000000 0.000000

[CONDUITS]
;;Name           From Node        To Node          Length     Roughness  InOffset   OutOffset  InitFlow   MaxFlow   
;;-------------- ---------------- ---------------- ---------- ---------- ---------- ---------- ---------- ----------
1030C            10309C           10208C           4500.000000 0.016000   0.000000   0.000000   1.000000   0.000000  
1030D            10309D           10208D           4500.000000 0.016000   0.000000   0.000000   1.000000   0.000000  
1030E            10309E           10208E           4500.000000 0.016000   0.000000   0.000000   1.000000   0.000000  
1570C            15009C           16009C           100.000000 0.015400   0.000000   0.000000   1.000000   0.000000  
1570D            15009D           16009D           5000.000000 0.015400   0.000000   0.000000   1.000000   0.000000  
1570E            15009E           16009E           5000.000000 0.015400   0.000000   0.000000   1.000000   0.000000  
1600C            16009C           16109C           500.000000 0.015000   0.000000   0.000000   1.000000   0.000000  
1600D            16009D           16109D           500.000000 0.015000   0.000000   0.000000   1.000000   0.000000  
1600E            16009E           16109E           500.000000 0.015000   0.000000   0.000000   1.000000   0.000000  
1602C            82309C           16109C           5000.000000 0.034000   0.000000   0.000000   1.000000   0.000000  
1602D            82309D           16109D           5000.000000 0.034000   0.000000   0.000000   1.000000   0.000000  
1602E            WETWELL          16109E           5000.000000 0.034000   0.000000   0.000000   1.000000   0.000000  
1630C            16009C           10309C           300.000000 0.015000   0.000000   0.000000   1.000000   0.000000  
1630D            16009D           10309D           300.000000 0.015000   0.000000   0.000000   1.000000   0.000000  
1630E            16009E           10309E           300.000000 0.015000   0.000000   0.000000   1.000000   0.000000  
; 4th network or extran example 4
8040C            80408C           80608C           1800.000000 0.015000   0.000000   0.000000   1.000000   0.000000  
; 5th network or extran example 5
8040D            80408D           80608D           1800.000000 0.015000   0.000000   0.000000   1.000000   0.000000  
; 6th network or extran example 7
8040E            80408E           80608E           1800.000000 0.015000   0.000000   0.000000   1.000000   0.000000  
8060C            80608C           82309C           2075.000000 0.015000   0.000000   2.200000   1.000000   0.000000  
8060D            80608D           82309D           2075.000000 0.015000   0.000000   2.200000   1.000000   0.000000  
8060E            80608E           WETWELL          2075.000000 0.015000   0.000000   2.200000   1.000000   0.000000  
8100C            81009C           81309C           5100.000000 0.015000   0.000000   0.000000   1.000000   0.000000  
8100D            81009D           81309D           5100.000000 0.015000   0.000000   0.000000   1.000000   0.000000  
8100E            81009E           81309E           5100.000000 0.015000   0.000000   0.000000   1.000000   0.000000  
8130C            81309C           15009C           3500.000000 0.015000   0.000000   0.000000   1.000000   0.000000  
8130D            81309D           15009D           3500.000000 0.015000   0.000000   0.000000   1.000000   0.000000  
8130E            81309E           15009E           3500.000000 0.015000   0.000000   0.000000   1.000000   0.010000  

[PUMPS]
;;Name           From Node        To Node          Pump Curve       Status   Sartup Shutoff 
;;-------------- ---------------- ---------------- ---------------- ------ -------- --------
PUMP1            WETWELL          15009E           PUMP_CURVE       OFF      5.750000 2.000000

[ORIFICES]
;;Name           From Node        To Node          Type         Offset     Qcoeff     Gated    CloseTime 
;;-------------- ---------------- ---------------- ------------ ---------- ---------- -------- ----------
OR1@82309D-82308D 82309D           82308D           SIDE         0.000000   0.850000   NO       0         

[WEIRS]
;;Name           From Node        To Node          Type         CrestHt    Qcoeff     Gated    EndCon   EndCoeff   Surcharge  RoadWidth  RoadSurf  
;;-------------- ---------------- ---------------- ------------ ---------- ---------- -------- -------- ---------- ---------- ---------- ----------
WEIR1@82309C-15009C 82309C           15009C           TRANSVERSE   0.700000   3.300000   NO       0        0.000000   YES       

[XSECTIONS]
;;Link           Shape        Geom1            Geom2      Geom3      Geom4      Barrels    Culvert   
;;-------------- ------------ ---------------- ---------- ---------- ---------- ---------- ----------
1030C            TRIANGULAR   9.000000         54.000000  0.000000   0.000000   1          0         
1030D            TRIANGULAR   9.000000         54.000000  0.000000   0.000000   1          0         
1030E            TRIANGULAR   9.000000         54.000000  0.000000   0.000000   1          0         
1570C            CIRCULAR     5.500000         0.000000   0.000000   0.000000   1          0         
1570D            CIRCULAR     5.500000         0.000000   0.000000   0.000000   1          0         
1570E            FORCE_MAIN   5.500000         122.000000 0.000000   0.000000   1          0         
1600C            CIRCULAR     6.000000         0.000000   0.000000   0.000000   1          0         
1600D            CIRCULAR     6.000000         0.000000   0.000000   0.000000   1          0         
1600E            CIRCULAR     6.000000         0.000000   0.000000   0.000000   1          0         
1602C            CIRCULAR     5.000000         0.000000   0.000000   0.000000   1          0         
1602D            CIRCULAR     5.000000         0.000000   0.000000   0.000000   1          0         
1602E            CIRCULAR     5.000000         0.000000   0.000000   0.000000   1          0         
1630C            TRIANGULAR   9.000000         54.000000  0.000000   0.000000   1          0         
1630D            TRIANGULAR   9.000000         54.000000  0.000000   0.000000   1          0         
1630E            TRIANGULAR   9.000000         54.000000  0.000000   0.000000   1          0         
8040C            CIRCULAR     4.000000         0.000000   0.000000   0.000000   1          0         
8040D            CIRCULAR     4.000000         0.000000   0.000000   0.000000   1          0         
8040E            CIRCULAR     4.000000         0.000000   0.000000   0.000000   1          0         
8060C            CIRCULAR     4.000000         0.000000   0.000000   0.000000   1          0         
8060D            CIRCULAR     4.000000         0.000000   0.000000   0.000000   1          0         
8060E            CIRCULAR     4.000000         0.000000   0.000000   0.000000   1          0         
8100C            CIRCULAR     4.500000         0.000000   0.000000   0.000000   1          0         
8100D            CIRCULAR     4.500000         0.000000   0.000000   0.000000   1          0         
8100E            CIRCULAR     4.500000         0.000000   0.000000   0.000000   1          0         
8130C            CIRCULAR     4.500000         0.000000   0.000000   0.000000   1          0         
8130D            CIRCULAR     4.500000         0.000000   0.000000   0.000000   1          0         
8130E            CIRCULAR     4.500000         0.000000   0.000000   0.000000   1          0         
OR1@82309D-82308D CIRCULAR     2.000000         0          0          0
WEIR1@82309C-15009C RECT_OPEN    6.000000         3.000000   0.000000   0.000000  

[LOSSES]
;;Link           Kentry     Kexit      Kavg       Flap Gate  Seepage   
;;-------------- ---------- ---------- ---------- ---------- ----------
1030C            0.000000   0.000000   0.000000   NO         0.000000  
1030D            0.000000   0.000000   0.000000   NO         0.000000  
1030E            0.000000   0.000000   0.000000   NO         0.000000  
1570C            0.000000   0.000000   0.000000   NO         0.000000  
1570D            0.000000   0.000000   0.000000   NO         0.000000  
1570E            0.000000   0.000000   0.000000   NO         0.000000  
1600C            0.000000   0.000000   0.000000   NO         0.000000  
1600D            0.000000   0.000000   0.000000   NO         0.000000  
1600E            0.000000   0.000000   0.000000   NO         0.000000  
1602C            0.000000   0.000000   0.000000   NO         0.000000  
1602D            0.000000   0.000000   0.000000   NO         0.000000  
1602E            0.000000   0.000000   0.000000   NO         0.000000  
1630C            0.000000   0.000000   0.000000   NO         0.000000  
1630D            0.000000   0.000000   0.000000   NO         0.000000  
1630E            0.000000   0.000000   0.000000   NO         0.000000  
8040C            0.000000   0.000000   0.000000   NO         0.000000  
8040D            0.000000   0.000000   0.000000   NO         0.000000  
8040E            0.000000   0.000000   0.000000   NO         0.000000  
8060C            0.000000   0.000000   0.000000   NO         0.000000  
8060D            0.000000   0.000000   0.000000   NO         0.000000  
8060E            0.000000   0.000000   0.000000   NO         0.000000  
8100C            0.000000   0.000000   0.000000   NO         0.000000  
8100D            0.000000   0.000000   0.000000   NO         0.000000  
8100E            0.000000   0.000000   0.000000   NO         0.000000  
8130C            0.000000   0.000000   0.000000   NO         0.000000  
8130D            0.000000   0.000000   0.000000   NO         0.000000  
8130E            0.000000   0.000000   0.000000   NO         0.000000  

[CONTROLS]
;;Control Rules
RULE PUMP1
IF NODE WETWELL DEPTH < 6.250000
AND PUMP PUMP1 STATUS = ON
THEN PUMP PUMP1 SETTING = 0.600000
PRIORITY 1.000000

RULE PUMP1A
IF NODE WETWELL DEPTH > 6.250000
AND NODE WETWELL DEPTH <= 10.000000
THEN PUMP PUMP1 SETTING = 0.750000
PRIORITY 1.000000

RULE PUMP1B
IF NODE WETWELL DEPTH > 10.000000
THEN PUMP PUMP1 SETTING = 1.000000
PRIORITY 1.000000




[INFLOWS]
;;Node           Constituent      Time Series      Type     Mfactor  Sfactor  Baseline Pattern
;;-------------- ---------------- ---------------- -------- -------- -------- -------- --------
80408C           FLOW             INFLOW@80408C    FLOW     1.0      2                
80408D           FLOW             INFLOW@80408D    FLOW     1.0      1.000000         
80408E           FLOW             INFLOW@80408E    FLOW     1.0      2                
81009C           FLOW             INFLOW@81009C    FLOW     1.0      1.000000         
81009D           FLOW             INFLOW@81009D    FLOW     1.0      1.000000         
81009E           FLOW             INFLOW@81009E    FLOW     1.0      1.000000         
82309C           FLOW             INFLOW@82309C    FLOW     1.0      1.000000         
82309D           FLOW             INFLOW@82309D    FLOW     1.0      1.000000         
WETWELL          FLOW             INFLOW@82309E    FLOW     1.0      1.000000         

[CURVES]
;;Name           Type       X-Value    Y-Value   
;;-------------- ---------- ---------- ----------
PUMP1_LINEAR     CONTROL    0.000000   0.000000  
PUMP1_LINEAR                0.500000   0.250000  
PUMP1_LINEAR                2.999000   0.250000  
PUMP1_LINEAR                3.000000   0.000000  
PUMP1_LINEAR                20.000000  0.000000  
;
; Linear  Curve for Pump2
PUMP2_LINEAR     CONTROL    0.000000   0.000000  
PUMP2_LINEAR                3.000000   0.000000  
PUMP2_LINEAR                3.001000   0.500000  
PUMP2_LINEAR                4.999000   0.500000  
PUMP2_LINEAR                5.000000   0.000000  
PUMP2_LINEAR                20.000000  0.000000  
;
PUMP3_LINEAR     CONTROL    0.000000   0.000000  
PUMP3_LINEAR                4.999000   0.000000  
PUMP3_LINEAR                5.000000   1.000000  
PUMP3_LINEAR                20.000000  1.000000  
;
PUMP_CURVE       PUMP3      1.000000   15.000000 
PUMP_CURVE                  2.000000   12.000000 
PUMP_CURVE                  3.000000   9.000000  
PUMP_CURVE                  4.000000   6.000000  
PUMP_CURVE                  5.000000   5.000000  
PUMP_CURVE                  6.000000   4.000000  
PUMP_CURVE                  7.000000   3.000000  
PUMP_CURVE                  8.000000   2.000000  
PUMP_CURVE                  9.000000   1.000000  
PUMP_CURVE                  10.000000  0.500000  
;
SB1              STORAGE    0.000000   0.000000  
SB1                         1.000000   0.000000  
SB1                         1.500000   0.000000  
SB1                         2.000000   0.000000  
SB1                         2.500000   340.000000
SB1                         3.000000   2483.000000
SB1                         3.500000   5686.000000
SB1                         4.000000   11585.000000
SB1                         4.500000   51299.000000
SB1                         5.000000   278327.000000
SB1                         5.500000   526214.000000
SB1                         6.000000   740422.000000
SB1                         6.500000   839055.000000
SB1                         7.000000   864692.000000
SB1                         8.000000   866863.000000
SB1                         9.000000   868103.000000
SB1                         10.000000  868394.000000
;
SB2              STORAGE    0.000000   0.000000  
SB2                         1.000000   0.000000  
SB2                         1.500000   7103.000000
SB2                         2.000000   31791.000000
SB2                         2.500000   71923.000000
SB2                         3.000000   122585.000000
SB2                         3.500000   183836.000000
SB2                         4.000000   272757.000000
SB2                         4.500000   460705.000000
SB2                         5.000000   751151.000000
SB2                         5.500000   967995.000000
SB2                         6.000000   1095621.000000
SB2                         6.500000   1101547.000000
SB2                         7.000000   1101970.000000
SB2                         8.000000   1102600.000000
SB2                         9.000000   1103111.000000
SB2                         10.000000  1103519.000000
;
SB3              STORAGE    0.000000   0.000000  
SB3                         1.000000   0.000000  
SB3                         1.500000   0.000000  
SB3                         2.000000   0.000000  
SB3                         2.500000   0.000000  
SB3                         3.000000   332.000000
SB3                         3.500000   23187.000000
SB3                         4.000000   127395.000000
SB3                         4.500000   316178.000000
SB3                         5.000000   471158.000000
SB3                         5.500000   554586.000000
SB3                         6.000000   598930.000000
SB3                         6.500000   615368.000000
SB3                         7.000000   619054.000000
SB3                         8.000000   623164.000000
SB3                         9.000000   626320.000000
SB3                         10.000000  628073.000000
;
SB4              STORAGE    0.000000   1565.000000
SB4                         1.000000   2261.000000
SB4                         1.500000   2607.000000
SB4                         2.000000   3010.000000
SB4                         2.500000   3441.000000
SB4                         3.000000   3901.000000
SB4                         3.500000   4388.000000
SB4                         4.000000   6141.000000
SB4                         4.500000   73936.000000
SB4                         5.000000   305776.000000
SB4                         5.500000   477898.000000
SB4                         6.000000   581768.000000
SB4                         6.500000   602558.000000
SB4                         7.000000   605744.000000
SB4                         8.000000   606120.000000
SB4                         9.000000   606441.000000
SB4                         10.000000  606768.000000
;
SB5              STORAGE    0.000000   0.000000  
SB5                         1.000000   0.000000  
SB5                         1.500000   0.000000  
SB5                         2.000000   0.000000  
SB5                         2.500000   39.000000 
SB5                         3.000000   7520.000000
SB5                         3.500000   45065.000000
SB5                         4.000000   83112.000000
SB5                         4.500000   161541.000000
SB5                         5.000000   235404.000000
SB5                         5.500000   295242.000000
SB5                         6.000000   322603.000000
SB5                         6.500000   341396.000000
SB5                         7.000000   347583.000000
SB5                         8.000000   355460.000000
SB5                         9.000000   358876.000000
SB5                         10.000000  359746.000000
;
SB6              STORAGE    0.000000   0.000000  
SB6                         1.000000   28.000000 
SB6                         1.500000   62.000000 
SB6                         2.000000   111.000000
SB6                         2.500000   174.000000
SB6                         3.000000   671.000000
SB6                         3.500000   20637.000000
SB6                         4.000000   115442.000000
SB6                         4.500000   280562.000000
SB6                         5.000000   438832.000000
SB6                         5.500000   604771.000000
SB6                         6.000000   711883.000000
SB6                         6.500000   754132.000000
SB6                         7.000000   772875.000000
SB6                         8.000000   777041.000000
SB6                         9.000000   777041.000000
SB6                         10.000000  777041.000000
;
SB7              STORAGE    0.000000   0.000000  
SB7                         1.000000   76.000000 
SB7                         1.500000   161.000000
SB7                         2.000000   277.000000
SB7                         2.500000   425.000000
SB7                         3.000000   604.000000
SB7                         3.500000   814.000000
SB7                         4.000000   1094.000000
SB7                         4.500000   13105.000000
SB7                         5.000000   92154.000000
SB7                         5.500000   244856.000000
SB7                         6.000000   425764.000000
SB7                         6.500000   534327.000000
SB7                         7.000000   603342.000000
SB7                         8.000000   629626.000000
SB7                         9.000000   635380.000000
SB7                         10.000000  639804.000000
;
SB8              STORAGE    0.000000   0.000000  
SB8                         1.000000   0.000000  
SB8                         1.500000   0.000000  
SB8                         2.000000   0.000000  
SB8                         2.500000   3210.000000
SB8                         3.000000   18142.000000
SB8                         3.500000   39310.000000
SB8                         4.000000   66507.000000
SB8                         4.500000   121586.000000
SB8                         5.000000   199685.000000
SB8                         5.500000   318789.000000
SB8                         6.000000   434905.000000
SB8                         6.500000   529773.000000
SB8                         7.000000   610618.000000
SB8                         8.000000   692084.000000
SB8                         9.000000   742023.000000
SB8                         10.000000  766289.000000
;
SB9              STORAGE    0.000000   0.000000  
SB9                         1.000000   0.000000  
SB9                         1.500000   0.000000  
SB9                         2.000000   0.000000  
SB9                         2.500000   0.000000  
SB9                         3.000000   0.000000  
SB9                         3.500000   0.000000  
SB9                         4.000000   0.000000  
SB9                         4.500000   2.000000  
SB9                         5.000000   2361.000000
SB9                         5.500000   49440.000000
SB9                         6.000000   264589.000000
SB9                         6.500000   600759.000000
SB9                         7.000000   986301.000000
SB9                         8.000000   1176915.000000
SB9                         9.000000   1187853.000000
SB9                         10.000000  1189988.000000

[TIMESERIES]
;;Name           Date       Time       Value     
;;-------------- ---------- ---------- ----------
INFLOW@82309     01/01/1988 00:00      0.000000  
INFLOW@82309                00:15      40.000000 
INFLOW@82309                03:00      40.000000 
INFLOW@82309                03:15      0.000000  
INFLOW@82309                12:00      0.000000  
;
INFLOW@80408     01/01/1988 00:00      0.000000  
INFLOW@80408                00:15      45.000000 
INFLOW@80408                03:00      45.000000 
INFLOW@80408                03:15      0.000000  
INFLOW@80408                12:00      0.000000  
INFLOW@80408     01/11/1988 0:00       0.000000  
;
INFLOW@81009     01/01/1988 00:00      0.000000  
INFLOW@81009                00:15      50.000000 
INFLOW@81009                03:00      50.000000 
INFLOW@81009                03:15      0.000000  
INFLOW@81009                12:00      0.000000  
;
INFLOW@82309A    01/01/1988 00:00      0.000000  
INFLOW@82309A               00:15      40.000000 
INFLOW@82309A               03:00      40.000000 
INFLOW@82309A               03:15      0.000000  
INFLOW@82309A               12:00      0.000000  
;
INFLOW@80408A    01/01/1988 00:00      0.000000  
INFLOW@80408A               00:15      45.000000 
INFLOW@80408A               03:00      45.000000 
INFLOW@80408A               03:15      0.000000  
INFLOW@80408A               12:00      0.000000  
;
INFLOW@81009A    01/01/1988 00:00      0.000000  
INFLOW@81009A               00:15      50.000000 
INFLOW@81009A               03:00      50.000000 
INFLOW@81009A               03:15      0.000000  
INFLOW@81009A               12:00      0.000000  
;
INFLOW@82309B    01/01/1988 00:00      0.000000  
INFLOW@82309B               00:15      40.000000 
INFLOW@82309B               03:00      40.000000 
INFLOW@82309B               03:15      0.000000  
INFLOW@82309B               12:00      0.000000  
;
INFLOW@80408B    01/01/1988 00:00      0.000000  
INFLOW@80408B               00:15      45.000000 
INFLOW@80408B               03:00      45.000000 
INFLOW@80408B               03:15      0.000000  
INFLOW@80408B               12:00      0.000000  
;
INFLOW@81009B    01/01/1988 00:00      0.000000  
INFLOW@81009B               00:15      50.000000 
INFLOW@81009B               03:00      50.000000 
INFLOW@81009B               03:15      0.000000  
INFLOW@81009B               12:00      0.000000  
;
INFLOW@82309C    01/01/1988 00:00      0.000000  
INFLOW@82309C               00:15      40.000000 
INFLOW@82309C               03:00      40.000000 
INFLOW@82309C               03:15      0.000000  
INFLOW@82309C               12:00      0.000000  
;
INFLOW@80408C    01/01/1988 00:00      0.000000  
INFLOW@80408C               00:15      45.000000 
INFLOW@80408C               03:00      45.000000 
INFLOW@80408C               03:15      0.000000  
INFLOW@80408C               12:00      0.000000  
;
INFLOW@81009C    01/01/1988 00:00      0.000000  
INFLOW@81009C               00:15      50.000000 
INFLOW@81009C               03:00      50.000000 
INFLOW@81009C               03:15      0.000000  
INFLOW@81009C               12:00      0.000000  
;
INFLOW@82309D    01/01/1988 00:00      0.000000  
INFLOW@82309D               00:15      40.000000 
INFLOW@82309D               03:00      40.000000 
INFLOW@82309D               03:15      0.000000  
INFLOW@82309D               12:00      0.000000  
;
INFLOW@80408D    01/01/1988 00:00      0.000000  
INFLOW@80408D               00:15      45.000000 
INFLOW@80408D               03:00      45.000000 
INFLOW@80408D               03:15      0.000000  
INFLOW@80408D               12:00      0.000000  
;
INFLOW@81009D    01/01/1988 00:00      0.000000  
INFLOW@81009D               00:15      50.000000 
INFLOW@81009D               03:00      50.000000 
INFLOW@81009D               03:15      0.000000  
INFLOW@81009D               12:00      0.000000  
;
INFLOW@82309E    01/01/1988 00:00      0.000000  
INFLOW@82309E               00:15      40.000000 
INFLOW@82309E               03:00      40.000000 
INFLOW@82309E               03:15      0.000000  
INFLOW@82309E               12:00      0.000000  
;
INFLOW@80408E    01/01/1988 00:00      0.000000  
INFLOW@80408E               00:15      45.000000 
INFLOW@80408E               03:00      45.000000 
INFLOW@80408E               03:15      0.000000  
INFLOW@80408E               12:00      0.000000  
;
INFLOW@81009E    01/01/1988 00:00      0.000000  
INFLOW@81009E               00:15      50.000000 
INFLOW@81009E               03:00      50.000000 
INFLOW@81009E               03:15      0.000000  
INFLOW@81009E               12:00      0.000000  
;
OPENORIFICE                 0:00       0.000000  
OPENORIFICE                 1:00       0.000000  
OPENORIFICE                 1:05       0.100000  
OPENORIFICE                 1:10       0.200000  
OPENORIFICE                 1:15       0.500000  
OPENORIFICE                 1:30       1.000000  
OPENORIFICE                 11:00      1.000000  

[PATTERNS]
;;Name           Type       Multipliers
;;-------------- ---------- -----------
30_MINUTE        MONTHLY    2.000000 1.000000 2.000000 1.000000 2.000000 1.000000