[TITLE]
;;Project Title/Notes

[OPTIONS]
;;Option             Value
FLOW_UNITS           CMS
INFILTRATION         GREEN_AMPT
FLOW_ROUTING         DYNWAVE
LINK_OFFSETS         DEPTH
MIN_SLOPE            0
ALLOW_PONDING        YES
SKIP_STEADY_STATE    NO

START_DATE           01/01/1999
START_TIME           00:00:00
REPORT_START_DATE    01/01/1999
REPORT_START_TIME    00:00:00
END_DATE             01/03/1999
END_TIME             20:00:00
SWEEP_START          1/1
SWEEP_END            12/31
DRY_DAYS             0
REPORT_STEP          00:05:00
WET_STEP             00:15:00
DRY_STEP             01:00:00
ROUTING_STEP         0:00:05 

INERTIAL_DAMPING     PARTIAL
NORMAL_FLOW_LIMITED  BOTH
FORCE_MAIN_EQUATION  H-W
VARIABLE_STEP        0.00
LENGTHENING_STEP     0
MIN_SURFAREA         0
MAX_TRIALS           0
HEAD_TOLERANCE       0
SYS_FLOW_TOL         5
LAT_FLOW_TOL         5
MINIMUM_STEP         0.5
THREADS              1

[EVAPORATION]
;;Data Source    Parameters
;;-------------- ----------------
CONSTANT         0.0
DRY_ONLY         NO

[RAINGAGES]
;;Name           Format    Interval SCF      Source    
;;-------------- --------- ------ ------ ----------
1                INTENSITY 1:00     1.0      TIMESERIES 100yr           

[SUBCATCHMENTS]
;;Name           Rain Gage        Outlet           Area     %Imperv  Width    %Slope   CurbLen  SnowPack        
;;-------------- ---------------- ---------------- -------- -------- -------- -------- -------- ----------------
100              1                1                637      8.6      5400     2.5      0                        

[SUBAREAS]
;;Subcatchment   N-Imperv   N-Perv     S-Imperv   S-Perv     PctZero    RouteTo    PctRouted 
;;-------------- ---------- ---------- ---------- ---------- ---------- ---------- ----------
100              0.001      0.3        0.0001     0.10       25         OUTLET    

[INFILTRATION]
;;Subcatchment   Suction    Ksat       IMD       
;;-------------- ---------- ---------- ----------
100              110        1          0.02      

[JUNCTIONS]
;;Name           Elevation  MaxDepth   InitDepth  SurDepth   Aponded   
;;-------------- ---------- ---------- ---------- ---------- ----------
3                71.5       5          0          0          0         
4                71.22      5          0          0          0         
5                71.04      5          0          0          0         
6                70.86      5          0          0          0         
7                70.68      5          0          0          0         
8                70.5       5          0          0          0         
9                70.32      5          0          0          0         
10               70.14      5          0          0          0         
11               69.96      5          0          0          0         
12               69.78      5          0          0          0         
13               69.6       5          0          0          0         
14               69.42      5          0          0          0         
15               69.24      5          0          0          0         
16               69.06      5          0          0          0         
17               68.88      5          0          0          0         
18               68.7       5          0          0          0         
19               68.52      5          0          0          0         
20               68.34      5          0          0          0         
21               68.16      5          0          0          0         

[OUTFALLS]
;;Name           Elevation  Type       Stage Data       Gated    Route To        
;;-------------- ---------- ---------- ---------------- -------- ----------------
22               67.98      NORMAL                      NO                       

[STORAGE]
;;Name           Elev.    MaxDepth   InitDepth  Shape      Curve Name/Params            N/A      Fevap    Psi      Ksat     IMD     
;;-------------- -------- ---------- ----------- ---------- ---------------------------- -------- --------          -------- --------
1                72       5          0          TABULAR    Gov_lake                     0        0       

[CONDUITS]
;;Name           From Node        To Node          Length     Roughness  InOffset   OutOffset  InitFlow   MaxFlow   
;;-------------- ---------------- ---------------- ---------- ---------- ---------- ---------- ---------- ----------
3                3                4                65         0.01       0          0          0          0         
4                4                5                65         0.01       0          0          0          0         
5                5                6                65         0.01       0          0          0          0         
6                6                7                65         0.01       0          0          0          0         
7                7                8                65         0.01       0          0          0          0         
8                8                9                65         0.01       0          0          0          0         
9                9                10               65         0.01       0          0          0          0         
10               10               11               65         0.01       0          0          0          0         
11               11               12               400        0.01       0          0          0          0         
12               12               13               400        0.01       0          0          0          0         
13               13               14               400        0.01       0          0          0          0         
14               14               15               400        0.01       0          0          0          0         
15               15               16               400        0.01       0          0          0          0         
16               16               17               400        0.01       0          0          0          0         
17               17               18               400        0.01       0          0          0          0         
18               18               19               400        0.01       0          0          0          0         
19               19               20               400        0.01       0          0          0          0         
20               20               21               400        0.01       0          0          0          0         
21               21               22               400        0.01       0          0          0          0         

[OUTLETS]
;;Name           From Node        To Node          Offset     Type            QTable/Qcoeff    Qexpon     Gated   
;;-------------- ---------------- ---------------- ---------- --------------- ---------------- ---------- --------
1                1                3                0          TABULAR/DEPTH   Outlet                      NO      

[XSECTIONS]
;;Link           Shape        Geom1            Geom2      Geom3      Geom4      Barrels    Culvert   
;;-------------- ------------ ---------------- ---------- ---------- ---------- ---------- ----------
3                IRREGULAR    Trans20          0          0          0          1                    
4                IRREGULAR    Trans19          0          0          0          1                    
5                IRREGULAR    Trans18          0          0          0          1                    
6                IRREGULAR    Trans17          0          0          0          1                    
7                IRREGULAR    Trans16          0          0          0          1                    
8                IRREGULAR    Trans15          0          0          0          1                    
9                IRREGULAR    Trans14          0          0          0          1                    
10               IRREGULAR    Trans13          0          0          0          1                    
11               IRREGULAR    Trans12          0          0          0          1                    
12               IRREGULAR    Trans11          0          0          0          1                    
13               IRREGULAR    Trans10          0          0          0          1                    
14               IRREGULAR    Trans9           0          0          0          1                    
15               IRREGULAR    Trans8           0          0          0          1                    
16               IRREGULAR    Trans7           0          0          0          1                    
17               IRREGULAR    Trans6           0          0          0          1                    
18               IRREGULAR    Trans5           0          0          0          1                    
19               IRREGULAR    Trans4           0          0          0          1                    
20               IRREGULAR    Trans3           0          0          0          1                    
21               IRREGULAR    Trans2           0          0          0          1                    

[TRANSECTS]
;;Transect Data in HEC-2 format
;
NC 0.15     0.15     0.06    
X1 Trans1            30       114.3719001 124.6446677 0.0      0.0      0.0      0.0      0.0     
GR 74.0425  0        74.087   3.235027185 73.78958 15.01099466 73.6633  23.65449731 73.60118 40.6771773
GR 73.34544 50.3122965 72.68109 61.15035102 72.30638 91.04920013 71.4624  98.76234189 70.67127 110.7665561
GR 70.55764 114.3719001 69.57613 115.7171563 68.75625 116.2732894 68.23457 118.3151342 68.62056 119.8163384
GR 69.1513  120.2850908 69.78045 120.8054833 70.60362 122.7996549 70.77706 124.6446677 70.80066 128.0130047
GR 70.63872 129.5271285 70.63979 130.3159319 70.38719 130.780537 70.48116 131.5939168 70.79257 131.9652425
GR 71.44887 135.7774103 72.24392 138.7542774 73.91123 141.2443011 74.04362 142.0309806 74.08848 143.1615291
;
NC 0.15     0.15     0.06    
X1 Trans2            24       41.74417814 55.77526369 0.0      0.0      0.0      0.0      0.0     
GR 75.05908 0        75.28745 8.617857984 74.68003 17.41607632 74.15748 23.99694692 72.65973 36.3231775
GR 71.74335 39.33098436 70.95731 41.74417814 69.12874 42.46348991 68.55255 46.79976387 68.96123 51.62792415
GR 69.10576 52.16930713 69.99393 54.73626932 70.08521 55.77526369 70.7119  57.18771363 70.71228 60.95407298
GR 70.63877 61.40434237 70.41308 62.07421977 70.46921 63.70727628 70.84438 64.1045823 71.24544 64.79151324
GR 72.86063 67.03529381 73.80804 68.47412162 74.02862 69.11053852 74.11931 70.51539406
;
NC 0.15     0.15     0.06    
X1 Trans3            23       61.96185705 83.90117159 0.0      0.0      0.0      0.0      0.0     
GR 77.36581 0        76.88178 5.137125889 76.45015 11.44141946 75.78011 13.43988349 74.37698 17.32648899
GR 74.24562 20.28093849 73.42075 33.79341538 72.77901 45.51465532 72.05013 54.00323281 71.01671 56.41962658
GR 70.1901  59.53398648 69.98973 61.96185705 69.36899 62.69192722 69.13914 71.26830298 69.03362 74.18857419
GR 69.16687 77.56533372 69.12672 80.94543028 69.70216 83.90117159 70.02067 84.68881834 71.43414 87.02440527
GR 73.70402 91.14465979 73.84203 91.6164735 73.99242 92.91310496
;
NC 0.15     0.15     0.06    
X1 Trans4            22       68.18615342 79.91533511 0.0      0.0      0.0      0.0      0.0     
GR 78.03204 0        77.18855 3.366371973 75.90528 8.14170834 74.5255  11.96573148 74.15522 14.83796697
GR 73.88641 20.14571584 72.81023 33.94062076 71.7188  41.66761454 70.99728 47.2126979 70.89879 56.2796284
GR 71.05706 62.9198963 71.12121 66.82780426 70.83231 68.18615342 70.13882 69.76773541 69.99917 72.24486512
GR 69.53117 74.28787525 69.95943 76.24556868 70.20882 76.95007103 71.66987 79.91533511 73.35389 82.62181131
GR 73.62062 83.75459628 73.74835 84.96094918
;
NC 0.15     0.15     0.06    
X1 Trans5            34       11.25176161 43.78358399 0.0      0.0      0.0      0.0      0.0     
GR 75.58043 0        74.50752 4.340661352 73.15939 8.143531256 71.65387 11.25176161 70.71812 13.54545186
GR 70.24217 17.01708338 69.73747 17.82784413 69.39805 19.3043109 69.27486 20.69466459 69.40739 21.91299124
GR 69.70481 22.10911735 69.78767 23.22509383 71.0019  25.01290274 71.14379 26.29707979 71.31743 27.51572602
GR 71.31265 30.9336384 71.07572 31.62282208 70.76356 33.33639151 70.39654 33.96803076 70.04487 34.79138104
GR 69.30201 35.32269047 69.32887 36.57808301 69.35421 38.08871587 69.46443 41.05918254 69.60922 42.72702524
GR 70.05503 43.46262837 70.23789 43.78358399 70.19367 47.70806914 70.7916  50.79511101 71.89095 53.27609131
GR 72.5329  55.00222734 73.37719 56.6697476 73.56878 57.27730416 73.6466  58.5958617
;
NC 0.15     0.15     0.06    
X1 Trans6            35       31.86885573 51.26880851 0.0      0.0      0.0      0.0      0.0     
GR 77.4815  0        76.44889 6.765114976 75.52353 9.493826342 74.48269 13.24284734 73.66309 15.61997426
GR 73.00524 16.78209906 72.23869 17.25600276 70.97635 19.78293278 70.74185 19.90406416 70.67013 20.73261375
GR 70.97847 21.05947532 71.36026 22.5002274 71.59133 23.85274515 71.7147  24.79017791 71.67424 28.36487219
GR 71.4648  29.61794481 71.07218 31.86885573 70.39465 32.63634421 70.41547 36.20967942 70.06008 38.48994033
GR 69.84579 40.77953703 70.07925 42.90538529 70.12374 43.9180987 69.92448 44.1247684 69.70449 46.37961352
GR 69.64725 47.96916943 69.80088 49.83135902 70.22653 50.08207812 70.7729  51.26880851 72.29152 54.58700544
GR 73.01425 56.23595006 73.70851 58.43993068 74.53119 61.35651964 73.84213 64.05427368 73.71334 67.28037492
;
NC 0.15     0.15     0.06    
X1 Trans7            30       39.99980626 56.19605558 0.0      0.0      0.0      0.0      0.0     
GR 77.61412 0        77.74782 6.635426794 77.16989 13.52988669 76.26897 18.55182912 74.47737 23.25403008
GR 73.18516 26.72258222 72.39067 27.52561259 71.17296 30.1748605 70.89273 30.8104403 70.81551 31.6631846
GR 71.29155 32.31966367 71.74673 34.11281829 71.97224 35.64772368 71.89127 39.99980626 71.07187 42.07721089
GR 70.39813 44.92192914 70.3626  47.94333308 70.14689 48.09406567 70.01365 50.79239647 70.09823 52.32558315
GR 70.4417  53.1668652 70.61326 53.40654613 71.51224 56.19605558 73.35588 58.80394842 73.70951 61.20597554
GR 74.23791 67.35893001 74.02118 72.51861068 73.70805 78.71881676 73.64834 83.90998743 73.69854 87.98521792
;
NC 0.15     0.15     0.06    
X1 Trans8            16       24.35929119 59.45721108 0.0      0.0      0.0      0.0      0.0     
GR 77.23293 0        75.95743 5.978775254 74.1605  8.292521282 72.1167  12.76455673 72.26105 16.1154423
GR 72.27097 19.46809181 71.96225 21.78162614 70.84275 24.35929119 70.86271 29.35418469 70.56072 35.8501277
GR 69.86737 40.44062785 70.58346 47.13210967 70.75682 50.58462678 70.88146 59.45721108 71.35658 69.95899721
GR 73.52712 74.30853094
;
NC 0.15     0.15     0.06    
X1 Trans9            32       36.02493388 64.29599368 0.0      0.0      0.0      0.0      0.0     
GR 77.07187 0        75.56109 6.029530808 74.46591 11.13561374 74.14265 14.48086979 74.37101 16.86020422
GR 73.4284  17.70633896 72.80719 18.78442989 72.24681 19.73005723 72.23473 20.99238977 72.7811  22.17839207
GR 72.59681 25.0278386 72.64672 29.11378745 72.52294 29.5017217 72.36415 30.31939957 72.55575 31.11981741
GR 72.23336 32.39240171 71.04469 34.04749466 71.14163 36.02493388 70.57612 38.89236759 69.77745 44.05872138
GR 69.36438 47.6109821 69.8794  51.15617094 70.36357 54.54904561 70.46771 59.90293544 70.53811 64.29599368
GR 70.91305 70.41646567 71.02802 75.31832027 71.08466 79.31945177 71.86048 87.6321313 72.50311 92.45276813
GR 73.5902  94.71315976 73.75298 97.54368001
;
NC 0.15     0.15     0.06    
X1 Trans10           20       28.67726556 63.51425025 0.0      0.0      0.0      0.0      0.0     
GR 77.13218 0        76.6883  4.476738717 76.40574 9.224405261 75.47461 13.47491751 74.62859 15.39086837
GR 73.97402 16.11943309 73.2762  19.77405325 72.60168 20.83459502 73.06875 22.20213903 72.97774 26.88173707
GR 72.37055 28.67726556 70.50616 31.1421689 68.74961 35.22483645 68.75782 42.67344002 68.86197 48.83764023
GR 70.53471 58.7231565 71.88279 63.51425025 72.85329 79.02196 73.95589 92.60582481 74.32571 107.1221167
;
NC 0.15     0.15     0.06    
X1 Trans11           40       41.04830668 63.64179339 0.0      0.0      0.0      0.0      0.0     
GR 78.71224 0        77.45526 4.276364907 76.34018 7.111027802 75.08569 12.78567605 74.40207 13.83514915
GR 73.86956 16.50592156 73.21694 19.44998513 73.45929 20.69995517 73.43994 23.85916337 73.2663  26.88771309
GR 71.29777 29.84875794 70.97014 36.30600952 71.1042  41.04830668 70.24036 43.03565703 69.63598 45.81552635
GR 70.05624 47.62622125 69.85158 48.61156923 70.1071  50.61166056 70.21659 52.86888724 70.34811 53.49083831
GR 70.60321 54.11869011 70.52669 55.02883399 70.28613 56.37575533 70.04869 57.871173 70.39457 58.60800407
GR 70.54223 59.69312856 70.56868 61.00750923 71.86279 63.64179339 72.72897 70.29097802 72.78288 72.06642607
GR 73.39179 75.31108764 73.89516 79.21371303 74.15506 82.04058871 74.74476 82.4637702 74.8718  86.89063014
GR 74.91432 90.5119709 74.846   100.8007173 74.72908 107.6108173 74.57958 109.1865958 74.92035 113.4011106
;
NC 0.15     0.15     0.06    
X1 Trans12           28       37.9434187 65.12920631 0.0      0.0      0.0      0.0      0.0     
GR 80.66719 0        79.54427 7.206384765 77.60012 11.80514163 75.90188 17.63800992 74.27299 21.04012941
GR 73.20421 22.27132522 73.48881 23.39340312 73.51692 27.2801243 73.64234 30.71608371 72.2742  33.95121
GR 71.34446 37.9434187 71.54346 44.10665413 70.72986 46.33204248 70.76444 50.54263147 70.52015 51.21390355
GR 70.04918 54.85003656 69.47811 60.48710102 70.54897 62.7755319 72.05368 65.12920631 72.31528 70.25677399
GR 72.88768 77.16763796 73.55924 82.55305932 74.42821 94.00250345 74.66898 105.4503487 75.02239 113.0047815
GR 75.25119 116.1221653 75.36548 117.8445256 75.48269 119.1598281
;
NC 0.15     0.15     0.06    
X1 Trans13           27       24.76846273 55.99094064 0.0      0.0      0.0      0.0      0.0     
GR 79.38569 0        78.35077 3.014607384 76.21672 8.570751544 75.64029 12.2432735 74.39889 14.73067587
GR 73.24652 15.96265379 73.58435 17.25511775 73.56594 21.02011359 73.36185 24.76846273 71.20781 34.35948772
GR 70.81602 42.0438737 70.55517 48.17124553 70.51274 48.40405118 70.26532 49.82604254 70.2395  51.33692232
GR 70.58508 53.35676946 72.23164 55.99094064 72.34573 65.60769916 72.74675 75.72798874 73.47174 81.13815453
GR 74.20047 90.18634621 74.5143  99.71009601 74.90373 104.3435582 75.25094 107.876335 75.70822 115.3608739
GR 75.6759  117.0750844 75.6093  118.2915759
;
NC 0.15     0.15     0.06    
X1 Trans14           31       24.74127265 53.29833008 0.0      0.0      0.0      0.0      0.0     
GR 80.21434 0        79.1354  3.441491148 78.77008 5.830394403 77.78298 9.192034901 75.8546  13.3479181
GR 74.27183 17.4275147 73.31338 18.01283993 73.662   18.91391958 73.72619 24.74127265 72.15431 29.97117277
GR 71.68568 33.45556225 70.80897 38.23638946 70.68785 39.75071368 70.76089 40.88305119 71.12179 42.96887858
GR 70.82194 44.92955671 70.60039 46.33904328 70.45645 48.25473057 70.63661 48.66855274 70.97146 50.4893429
GR 72.59557 53.29833008 73.3214  59.55489398 72.99887 68.48394887 74.58997 86.13630412 74.73398 88.4961833
GR 74.8107  99.67524625 75.05171 103.8728253 75.77154 106.7106263 76.52733 119.6015347 75.85552 124.353696
GR 75.7364  127.4238552
;
NC 0.15     0.15     0.06    
X1 Trans15           26       31.62199191 51.99820086 0.0      0.0      0.0      0.0      0.0     
GR 80.92614 0        79.37733 4.481239083 76.78658 13.10309649 74.41989 21.12071347 73.51934 23.81013001
GR 73.88567 26.29720879 73.92902 29.5361406 73.94123 30.08543775 73.78444 31.62199191 72.14003 34.264605
GR 71.73841 40.90392601 71.25609 43.65252234 71.70112 46.20341861 71.98539 48.36504058 73.13008 51.28960373
GR 73.1758  51.99820086 73.15601 56.33075706 73.2186  70.66430826 73.50183 82.28963724 75.76595 89.16857876
GR 75.80681 100.3172288 76.00429 107.1543848 75.91275 111.7464079 75.86517 118.0951872 75.34276 126.4229141
GR 75.49648 133.9861994
;
NC 0.15     0.15     0.06    
X1 Trans16           27       30.340766 43.72893501 0.0      0.0      0.0      0.0      0.0     
GR 79.00713 0        78.69727 3.865536028 77.83305 7.420364689 77.01096 12.5183288 76.24655 14.96721968
GR 75.55105 17.353392 74.50107 18.48142382 73.59416 20.89853458 74.00785 23.00794452 73.92159 23.98041161
GR 73.88954 27.24024767 73.93047 27.90981582 73.07851 30.340766 71.78972 32.2674996 71.51323 33.22731225
GR 71.54573 34.17699374 71.44713 34.73555256 70.8784  35.57416849 70.83913 38.17707592 71.29022 40.86453614
GR 71.92016 41.67023175 72.84364 43.72893501 72.89976 49.90304616 73.03432 62.11572709 73.46234 74.54531639
GR 74.29063 87.79114663 75.5569  100.1921869
;
NC 0.15     0.15     0.06    
X1 Trans17           21       14.41562097 24.81517795 0.0      0.0      0.0      0.0      0.0     
GR 77.28703 0        74.43429 4.172678699 73.75665 6.321508096 74.10565 7.800558868 74.18924 9.789542059
GR 74.13181 12.87936739 74.12404 13.42061453 73.73767 14.41562097 71.83506 16.99957712 71.21881 19.01780561
GR 71.10619 21.64820866 71.1305  22.87492683 71.30241 24.03475337 72.59142 24.81517795 72.83616 33.93406197
GR 73.04355 56.46298792 73.16565 62.19994149 74.66518 78.65868504 75.27658 86.37787614 74.92668 90.69203859
GR 74.49061 94.71616005
;
NC 0.15     0.15     0.06    
X1 Trans18           24       17.44231028 46.84184443 0.0      0.0      0.0      0.0      0.0     
GR 77.1744  0        76.32281 3.768491537 75.76493 6.189545706 74.9831  7.389513951 74.40717 9.074537009
GR 74.77605 10.20094752 74.76721 11.0086404 74.65157 14.39355045 73.00258 17.44231028 72.15008 19.65682953
GR 71.62106 23.0909483 71.69306 25.56749596 72.05468 26.42398855 72.07744 27.14069326 72.04617 27.90290333
GR 71.76693 28.3735553 72.02546 29.80272736 72.21409 33.71869596 72.24376 39.16315099 73.1426  46.84184443
GR 74.29247 57.50468418 75.08759 74.45632922 74.87019 94.90274023 75.11524 110.8312465
;
NC 0.15     0.15     0.06    
X1 Trans19           22       34.17451747 61.53613726 0.0      0.0      0.0      0.0      0.0     
GR 77.99371 0        75.90303 8.395240798 74.69213 15.63125633 74.78144 17.76760908 74.02987 19.55982653
GR 74.24166 21.34875884 74.95931 24.40279643 74.954   24.90571896 74.86815 28.33120192 74.2932  30.67719517
GR 72.74859 34.17451747 72.49199 37.95091399 72.137   42.2277357 71.7298  45.2518491 71.63081 47.48266953
GR 71.79986 49.99226429 72.16913 52.04374271 72.34209 57.30045888 73.11139 61.53613726 73.26291 68.36746792
GR 73.48058 78.71637922 73.67391 107.4957025
;
NC 0.15     0.15     0.06    
X1 Trans20           20       22.60813684 63.21709555 0.0      0.0      0.0      0.0      0.0     
GR 75.38017 0        74.91314 5.085552432 74.10449 6.34070323 74.79229 7.666694783 74.53579 8.463148744
GR 73.59125 9.603160568 74.80075 12.40049982 75.07445 13.79194479 74.97978 17.83563543 74.02838 19.98879607
GR 72.69021 22.60813684 72.18742 24.92121211 71.74984 32.33984226 71.4395  37.35055751 71.70172 42.46310239
GR 72.2071  46.54546231 72.83791 52.23280908 73.33699 63.21709555 73.29969 78.62223831 73.59321 89.32559459

[CURVES]
;;Name           Type       X-Value    Y-Value   
;;-------------- ---------- ---------- ----------
;outlet of Governor Lake
Outlet           PUMP4      0          0.00      
Outlet                      0.1        0.54      
Outlet                      0.2        1.52      
Outlet                      0.5        6.03      
Outlet                      0.8        12.20     
Outlet                      1.2        22.41     
Outlet                      1.5        31.32     
Outlet                      2          48.22     
;
Gov_lake         STORAGE    0          377000    
Gov_lake                    0.1        380000    
Gov_lake                    0.2        390000    
Gov_lake                    0.5        400000    
Gov_lake                    0.8        415000    
Gov_lake                    1.2        430000    
Gov_lake                    1.5        450000    
Gov_lake                    2          470000    

[TIMESERIES]
;;Name           Date       Time       Value     
;;-------------- ---------- ---------- ----------
;100 year rainfall chicago distribution from Shearwater Airport IDF data
100yr                       0:00:00    2.549756  
100yr                       1:00:00    2.722888  
100yr                       2:00:00    2.911758  
100yr                       3:00:00    3.132108  
100yr                       4:00:00    3.415414  
100yr                       5:00:00    3.777416  
100yr                       6:00:00    4.249594  
100yr                       7:00:00    4.910641  
100yr                       8:00:00    5.933692  
100yr                       9:00:00    7.790921  
100yr                       10:00:00   12.89043  
100yr                       11:00:00   46.43074  
100yr                       12:00:00   12.89043  
100yr                       13:00:00   7.790921  
100yr                       14:00:00   5.933692  
100yr                       15:00:00   4.910641  
100yr                       16:00:00   4.249594  
100yr                       17:00:00   3.777416  
100yr                       18:00:00   3.415414  
100yr                       19:00:00   3.132108  
100yr                       20:00:00   2.911758  
100yr                       21:00:00   2.722888  
100yr                       22:00:00   2.549756  
100yr                       23:00:00   2.423841  
;
;input from SWMM4
SWMM4input       01/01/99   0:01       0.035661  
SWMM4input       01/01/99   0:02       0.071315  
SWMM4input       01/01/99   0:03       0.071345  
SWMM4input       01/01/99   0:04       0.071413  
SWMM4input       01/01/99   0:05       0.071544  
SWMM4input       01/01/99   0:06       0.071705  
SWMM4input       01/01/99   0:07       0.071902  
SWMM4input       01/01/99   0:08       0.072109  
SWMM4input       01/01/99   0:09       0.072332  
SWMM4input       01/01/99   0:10       0.07256   
SWMM4input       01/01/99   0:11       0.0728    
SWMM4input       01/01/99   0:12       0.073042  
SWMM4input       01/01/99   0:13       0.073282  
SWMM4input       01/01/99   0:14       0.07352   
SWMM4input       01/01/99   0:15       0.073771  
SWMM4input       01/01/99   0:16       0.074015  
SWMM4input       01/01/99   0:17       0.074259  
SWMM4input       01/01/99   0:18       0.074501  
SWMM4input       01/01/99   0:19       0.074742  
SWMM4input       01/01/99   0:20       0.074985  
SWMM4input       01/01/99   0:21       0.075226  
SWMM4input       01/01/99   0:22       0.075469  
SWMM4input       01/01/99   0:23       0.075715  
SWMM4input       01/01/99   0:24       0.075959  
SWMM4input       01/01/99   0:25       0.076197  
SWMM4input       01/01/99   0:26       0.07644   
SWMM4input       01/01/99   0:27       0.076689  
SWMM4input       01/01/99   0:28       0.076928  
SWMM4input       01/01/99   0:29       0.077174  
SWMM4input       01/01/99   0:30       0.077419  
SWMM4input       01/01/99   0:31       0.077664  
SWMM4input       01/01/99   0:32       0.0779    
SWMM4input       01/01/99   0:33       0.078136  
SWMM4input       01/01/99   0:34       0.078381  
SWMM4input       01/01/99   0:35       0.078625  
SWMM4input       01/01/99   0:36       0.078869  
SWMM4input       01/01/99   0:37       0.079105  
SWMM4input       01/01/99   0:38       0.079341  
SWMM4input       01/01/99   0:39       0.079585  
SWMM4input       01/01/99   0:40       0.079829  
SWMM4input       01/01/99   0:41       0.080065  
SWMM4input       01/01/99   0:42       0.080301  
SWMM4input       01/01/99   0:43       0.080546  
SWMM4input       01/01/99   0:44       0.08079   
SWMM4input       01/01/99   0:45       0.081018  
SWMM4input       01/01/99   0:46       0.081262  
SWMM4input       01/01/99   0:47       0.081506  
SWMM4input       01/01/99   0:48       0.081734  
SWMM4input       01/01/99   0:49       0.081978  
SWMM4input       01/01/99   0:50       0.082222  
SWMM4input       01/01/99   0:51       0.08245   
SWMM4input       01/01/99   0:52       0.082694  
SWMM4input       01/01/99   0:53       0.082922  
SWMM4input       01/01/99   0:54       0.083166  
SWMM4input       01/01/99   0:55       0.08341   
SWMM4input       01/01/99   0:56       0.083638  
SWMM4input       01/01/99   0:57       0.083882  
SWMM4input       01/01/99   0:58       0.08411   
SWMM4input       01/01/99   0:59       0.084354  
SWMM4input       01/01/99   1:00       0.084582  
SWMM4input       01/01/99   1:01       0.084823  
SWMM4input       01/01/99   1:02       0.085068  
SWMM4input       01/01/99   1:03       0.085312  
SWMM4input       01/01/99   1:04       0.085563  
SWMM4input       01/01/99   1:05       0.085821  
SWMM4input       01/01/99   1:06       0.086073  
SWMM4input       01/01/99   1:07       0.086328  
SWMM4input       01/01/99   1:08       0.086587  
SWMM4input       01/01/99   1:09       0.086846  
SWMM4input       01/01/99   1:10       0.087094  
SWMM4input       01/01/99   1:11       0.087358  
SWMM4input       01/01/99   1:12       0.087617  
SWMM4input       01/01/99   1:13       0.087873  
SWMM4input       01/01/99   1:14       0.088122  
SWMM4input       01/01/99   1:15       0.088379  
SWMM4input       01/01/99   1:16       0.088639  
SWMM4input       01/01/99   1:17       0.088899  
SWMM4input       01/01/99   1:18       0.089151  
SWMM4input       01/01/99   1:19       0.089405  
SWMM4input       01/01/99   1:20       0.089663  
SWMM4input       01/01/99   1:21       0.089923  
SWMM4input       01/01/99   1:22       0.090187  
SWMM4input       01/01/99   1:23       0.09043   
SWMM4input       01/01/99   1:24       0.090694  
SWMM4input       01/01/99   1:25       0.090953  
SWMM4input       01/01/99   1:26       0.091208  
SWMM4input       01/01/99   1:27       0.091459  
SWMM4input       01/01/99   1:28       0.091722  