[TITLE]
Scenario Run :  BASE

[OPTIONS]
;Option and Files Scenario Set: BASE, Base Simulation Options
FLOW_UNITS	CFS
INFILTRATION	HORTON
FLOW_ROUTING	KINWAVE
IGNORE_ROUTING	YES
ALLOW_PONDING	YES
DRY_DAYS	0.000000
SKIP_STEADY_STATE 	NO
IGNORE_RAINFALL	NO
IGNORE_SNOWMELT	NO
IGNORE_GROUNDWATER	NO
IGNORE_QUALITY	NO
FORCE_MAIN_EQUATION	H-W
LINK_OFFSETS	DEPTH
MIN_SLOPE	0.000000
SYS_FLOW_TOL	5
LAT_FLOW_TOL	5
START_DATE	01/01/1994
START_TIME	00:00
END_DATE	01/01/1994
END_TIME	12:00
REPORT_START_DATE	01/01/1994
REPORT_START_TIME	00:00
SWEEP_START	01/01
SWEEP_END	12/31
WET_STEP	00:01:00
DRY_STEP	01:00:00
ROUTING_STEP	30
REPORT_STEP	00:05:00
INERTIAL_DAMPING	PARTIAL
VARIABLE_STEP	0.750000
MINIMUM_STEP	0.500000
LENGTHENING_STEP	0
MIN_SURFAREA	12.557000
NORMAL_FLOW_LIMITED	BOTH

[FILES]

[RAINGAGES]
1	INTENSITY	1.000000	1.000000	TIMESERIES	CONSTANT		

[HYDROGRAPHS]

[EVAPORATION]
CONSTANT	0.000000
DRY_ONLY	NO

[TEMPERATURE]

[ADJUSTMENTS]

[SUBCATCHMENTS]
SANRAMON!	1	DUMMY2	3539.005463	0.000000	36234.000000	2.600000	0.000000

[SUBAREAS]
SANRAMON!	0.000000	0.000000	0.000000	0.800400	100.000000	OUTLET

[INFILTRATION]
SANRAMON!	0.000000	0.000000	0.000000	999.000000	0.000000

[AQUIFERS]

[GROUNDWATER]

[GWF]

[SNOWPACKS]

[JUNCTIONS]
DUMMY2	568.000000	12.000000	0.000000	0.000000	154159077.981974

[OUTFALLS]

[DIVIDERS]

[STORAGE]

[CONDUITS]

[PUMPS]

[ORIFICES]

[WEIRS]

[XSECTIONS]

[TRANSECTS]

[LOSSES]

[CONTROLS]

[POLLUTANTS]

[LANDUSES]

[COVERAGES]

[BUILDUP]

[WASHOFF]

[TREATMENT]

[INFLOWS]

[DWF]

[RDII]

[LOADINGS]

[CURVES]

[TIMESERIES]
CONSTANT	01/01/1994	0:0	0.000000
CONSTANT	1:0	0.000000
CONSTANT	2:0	1.000000
CONSTANT	3:0	0.000000


[PATTERNS]

[REPORT]
;Report Option Set: BASE, Base Simulation Report
INPUT YES
CONTINUITY YES
FLOWSTATS YES
CONTROLS NO
SUBCATCHMENTS  ALL
NODES  ALL
LINKS  ALL

[COORDINATES]
DUMMY2	6129468.679000	2108368.355000


[POLYGONS]

SANRAMON!	6112456.937000	2123138.579000
SANRAMON!	6112456.937000	2123128.579000
SANRAMON!	6112476.938000	2123128.579000
SANRAMON!	6112476.938000	2123118.579000
SANRAMON!	6112496.937000	2123118.579000
SANRAMON!	6112496.937000	2123098.579000
SANRAMON!	6112506.937000	2123098.579000
SANRAMON!	6112506.937000	2123078.579000
SANRAMON!	6112526.937000	2123078.579000
SANRAMON!	6112526.937000	2123058.579000
SANRAMON!	6112536.937000	2123058.579000
SANRAMON!	6112536.937000	2123048.579000
SANRAMON!	6112546.937000	2123048.579000
SANRAMON!	6112546.937000	2123038.579000
SANRAMON!	6112556.937000	2123038.579000
SANRAMON!	6112556.937000	2123028.579000
SANRAMON!	6112566.937000	2123028.579000
SANRAMON!	6112566.937000	2123018.579000
SANRAMON!	6112606.937000	2123018.579000
SANRAMON!	6112606.937000	2123008.579000
SANRAMON!	6112616.937000	2123008.579000
SANRAMON!	6112616.937000	2122998.579000
SANRAMON!	6112626.937000	2122998.579000
SANRAMON!	6112626.937000	2122988.579000
SANRAMON!	6112656.938000	2122988.579000
SANRAMON!	6112656.938000	2122978.579000
SANRAMON!	6112666.937000	2122978.579000
SANRAMON!	6112666.937000	2122968.579000
SANRAMON!	6112686.937000	2122968.579000
SANRAMON!	6112686.937000	2122958.579000
SANRAMON!	6112696.937000	2122958.579000
SANRAMON!	6112696.937000	2122948.579000
SANRAMON!	6112706.937000	2122948.579000
SANRAMON!	6112706.937000	2122938.579000
SANRAMON!	6112746.937000	2122938.579000
SANRAMON!	6112746.937000	2122928.579000
SANRAMON!	6112756.937000	2122928.579000
SANRAMON!	6112756.937000	2122908.579000
SANRAMON!	6112766.937000	2122908.579000
SANRAMON!	6112766.937000	2122898.579000
SANRAMON!	6112776.937000	2122898.579000
SANRAMON!	6112776.937000	2122888.579000
SANRAMON!	6112786.937000	2122888.579000
SANRAMON!	6112786.937000	2122868.579000
SANRAMON!	6112806.938000	2122868.579000
SANRAMON!	6112806.938000	2122858.579000
SANRAMON!	6112816.938000	2122858.579000
SANRAMON!	6112816.938000	2122838.579000
SANRAMON!	6112826.937000	2122838.579000
SANRAMON!	6112826.937000	2122818.579000
SANRAMON!	6112836.937000	2122818.579000
SANRAMON!	6112836.937000	2122828.579000
SANRAMON!	6112846.937000	2122828.579000
SANRAMON!	6112846.937000	2122838.579000
SANRAMON!	6112876.937000	2122838.579000
SANRAMON!	6112876.937000	2122848.579000
SANRAMON!	6112896.937000	2122848.579000
SANRAMON!	6112896.937000	2122858.579000
SANRAMON!	6112946.937000	2122858.579000
SANRAMON!	6112946.937000	2122868.579000
SANRAMON!	6112966.938000	2122868.579000
SANRAMON!	6112966.938000	2122878.579000
SANRAMON!	6112986.938000	2122878.579000
SANRAMON!	6112986.938000	2122888.579000
SANRAMON!	6113046.937000	2122888.579000
SANRAMON!	6113046.937000	2122898.579000
SANRAMON!	6113076.937000	2122898.579000
SANRAMON!	6113076.937000	2122908.579000
SANRAMON!	6113106.937000	2122908.579000
SANRAMON!	6113116.937000	2122908.579000
SANRAMON!	6113116.937000	2122898.579000
SANRAMON!	6113166.937000	2122898.579000
SANRAMON!	6113166.937000	2122888.579000
SANRAMON!	6113176.937000	2122888.579000
SANRAMON!	6113176.937000	2122878.579000
SANRAMON!	6113196.937000	2122878.579000
SANRAMON!	6113196.937000	2122868.579000
SANRAMON!	6113216.937000	2122868.579000
SANRAMON!	6113216.937000	2122858.579000
SANRAMON!	6113226.937000	2122858.579000
SANRAMON!	6113226.937000	2122848.579000
SANRAMON!	6113306.938000	2122848.579000
SANRAMON!	6113306.938000	2122838.579000
SANRAMON!	6113346.937000	2122838.579000
SANRAMON!	6113346.937000	2122848.579000
SANRAMON!	6113356.937000	2122848.579000
SANRAMON!	6113356.937000	2122838.579000
SANRAMON!	6113376.937000	2122838.579000
SANRAMON!	6113376.937000	2122828.579000
SANRAMON!	6113396.937000	2122828.579000
SANRAMON!	6113396.937000	2122818.579000
SANRAMON!	6113416.937000	2122818.579000
SANRAMON!	6113416.937000	2122808.579000
SANRAMON!	6113456.937000	2122808.579000
SANRAMON!	6113456.937000	2122818.579000
SANRAMON!	6113486.937000	2122818.579000
SANRAMON!	6113486.937000	2122808.579000
SANRAMON!	6113556.937000	2122808.579000
SANRAMON!	6113556.937000	2122798.579000
SANRAMON!	6113606.937000	2122798.579000
SANRAMON!	6113606.937000	2122788.579000
SANRAMON!	6113626.938000	2122788.579000
SANRAMON!	6113626.938000	2122778.579000
SANRAMON!	6113686.937000	2122778.579000
SANRAMON!	6113686.937000	2122788.579000
SANRAMON!	6113706.937000	2122788.579000
SANRAMON!	6113706.937000	2122778.579000
SANRAMON!	6113726.937000	2122778.579000
SANRAMON!	6113726.937000	2122788.579000
SANRAMON!	6113786.938000	2122788.579000
SANRAMON!	6113816.937000	2122788.579000
SANRAMON!	6113816.937000	2122798.579000
SANRAMON!	6113826.937000	2122798.579000
SANRAMON!	6113826.937000	2122788.579000
SANRAMON!	6113836.937000	2122788.579000
SANRAMON!	6113836.937000	2122778.579000
SANRAMON!	6113856.937000	2122778.579000
SANRAMON!	6113856.937000	2122768.579000
SANRAMON!	6113876.937000	2122768.579000
SANRAMON!	6113876.937000	2122758.579000
SANRAMON!	6113886.937000	2122758.579000
SANRAMON!	6113886.937000	2122748.579000
SANRAMON!	6113896.937000	2122748.579000
SANRAMON!	6113896.937000	2122718.579000
SANRAMON!	6113906.937000	2122718.579000
SANRAMON!	6113906.937000	2122688.579000
SANRAMON!	6113916.937000	2122688.579000
SANRAMON!	6113916.937000	2122678.579000
SANRAMON!	6113926.937000	2122678.579000
SANRAMON!	6113926.937000	2122668.579000
SANRAMON!	6113936.937000	2122668.579000
SANRAMON!	6113936.937000	2122588.579000
SANRAMON!	6113926.937000	2122588.579000
SANRAMON!	6113926.937000	2122578.579000
SANRAMON!	6113936.937000	2122578.579000
SANRAMON!	6113936.937000	2122508.579000
SANRAMON!	6113926.937000	2122508.579000
SANRAMON!	6113926.937000	2122478.579000
SANRAMON!	6113916.937000	2122478.579000
SANRAMON!	6113916.937000	2122458.579000
SANRAMON!	6113926.937000	2122458.579000
SANRAMON!	6113926.937000	2122448.579000
SANRAMON!	6113936.937000	2122448.579000
SANRAMON!	6113936.937000	2122438.579000
SANRAMON!	6113946.937000	2122438.579000
SANRAMON!	6113946.937000	2122428.579000
SANRAMON!	6113956.938000	2122428.579000
SANRAMON!	6113956.938000	2122418.579000
SANRAMON!	6113966.938000	2122418.579000
SANRAMON!	6113966.938000	2122408.579000
SANRAMON!	6113976.937000	2122408.579000
SANRAMON!	6113976.937000	2122398.579000
SANRAMON!	6113986.937000	2122398.579000
SANRAMON!	6113986.937000	2122368.579000
SANRAMON!	6113996.937000	2122368.579000
SANRAMON!	6113996.937000	2122328.579000
SANRAMON!	6114006.937000	2122328.579000
SANRAMON!	6114006.937000	2122318.579000
SANRAMON!	6114016.937000	2122318.579000
SANRAMON!	6114016.937000	2122288.579000
SANRAMON!	6114026.937000	2122288.579000
SANRAMON!	6114026.937000	2122238.579000
SANRAMON!	6114046.937000	2122238.579000
SANRAMON!	6114046.937000	2122218.579000
SANRAMON!	6114056.937000	2122218.579000
SANRAMON!	6114056.937000	2122208.579000
SANRAMON!	6114066.937000	2122208.579000
SANRAMON!	6114066.937000	2122198.579000
SANRAMON!	6114086.937000	2122198.579000
SANRAMON!	6114086.937000	2122188.579000
SANRAMON!	6114106.937000	2122188.579000
SANRAMON!	6114106.937000	2122178.579000
SANRAMON!	6114116.938000	2122178.579000
SANRAMON!	6114116.938000	2122168.579000
SANRAMON!	6114166.937000	2122168.579000
SANRAMON!	6114166.937000	2122158.579000
SANRAMON!	6114186.937000	2122158.579000
SANRAMON!	6114186.937000	2122148.579000
SANRAMON!	6114206.937000	2122148.579000
SANRAMON!	6114206.937000	2122138.579000
SANRAMON!	6114216.937000	2122138.579000
SANRAMON!	6114216.937000	2122118.579000
SANRAMON!	6114226.937000	2122118.579000
SANRAMON!	6114226.937000	2122108.579000
SANRAMON!	6114216.937000	2122108.579000
SANRAMON!	6114216.937000	2122098.579000
SANRAMON!	6114226.937000	2122098.579000
SANRAMON!	6114226.937000	2121978.579000
SANRAMON!	6114246.937000	2121978.579000
SANRAMON!	6114246.937000	2121968.579000
SANRAMON!	6114256.937000	2121968.579000
SANRAMON!	6114256.937000	2121958.579000
SANRAMON!	6114266.937000	2121958.579000
SANRAMON!	6114266.937000	2121948.579000
SANRAMON!	6114276.937000	2121948.579000
SANRAMON!	6114276.937000	2121928.579000
SANRAMON!	6114296.938000	2121928.579000
SANRAMON!	6114296.938000	2121918.579000
SANRAMON!	6114316.937000	2121918.579000
SANRAMON!	6114316.937000	2121898.579000
SANRAMON!	6114346.937000	2121898.579000
SANRAMON!	6114346.937000	2121888.579000
SANRAMON!	6114356.937000	2121888.579000
SANRAMON!	6114356.937000	2121868.579000
SANRAMON!	6114376.938000	2121868.579000
SANRAMON!	6114376.938000	2121858.579000
SANRAMON!	6114386.938000	2121858.579000
SANRAMON!	6114386.938000	2121848.579000
SANRAMON!	6114396.938000	2121848.579000
SANRAMON!	6114396.938000	2121838.579000
SANRAMON!	6114406.938000	2121838.579000
SANRAMON!	6114406.938000	2121828.579000
SANRAMON!	6114416.938000	2121828.579000
SANRAMON!	6114416.938000	2121818.579000
SANRAMON!	6114426.938000	2121818.579000
SANRAMON!	6114426.938000	2121808.579000
SANRAMON!	6114436.938000	2121808.579000
SANRAMON!	6114436.938000	2121788.579000
SANRAMON!	6114456.938000	2121788.579000
SANRAMON!	6114456.938000	2121768.579000
SANRAMON!	6114466.937000	2121768.579000
SANRAMON!	6114466.937000	2121758.579000
SANRAMON!	6114476.937000	2121758.579000
SANRAMON!	6114476.937000	2121748.579000
SANRAMON!	6114496.937000	2121748.579000
SANRAMON!	6114496.937000	2121738.579000
SANRAMON!	6114506.937000	2121738.579000
SANRAMON!	6114506.937000	2121728.579000
SANRAMON!	6114526.937000	2121728.579000
SANRAMON!	6114526.937000	2121718.579000
SANRAMON!	6114536.938000	2121718.579000
SANRAMON!	6114536.938000	2121708.579000
SANRAMON!	6114546.938000	2121708.579000
SANRAMON!	6114546.938000	2121698.579000
SANRAMON!	6114556.938000	2121698.579000
SANRAMON!	6114556.938000	2121688.579000
SANRAMON!	6114566.938000	2121688.579000
SANRAMON!	6114566.938000	2121678.579000
SANRAMON!	6114576.938000	2121678.579000
SANRAMON!	6114576.938000	2121668.579000
SANRAMON!	6114596.937000	2121668.579000
SANRAMON!	6114596.937000	2121658.579000
SANRAMON!	6114616.938000	2121658.579000
SANRAMON!	6114616.938000	2121648.579000
SANRAMON!	6114626.938000	2121648.579000
SANRAMON!	6114626.938000	2121638.579000
SANRAMON!	6114646.937000	2121638.579000
SANRAMON!	6114646.937000	2121628.579000
SANRAMON!	6114656.937000	2121628.579000
SANRAMON!	6114656.937000	2121618.579000
SANRAMON!	6114676.937000	2121618.579000
SANRAMON!	6114676.937000	2121608.579000
SANRAMON!	6114686.937000	2121608.579000
SANRAMON!	6114686.937000	2121598.579000
SANRAMON!	6114716.937000	2121598.579000
SANRAMON!	6114716.937000	2121588.579000
SANRAMON!	6114736.937000	2121588.579000
SANRAMON!	6114736.937000	2121578.579000
SANRAMON!	6114746.937000	2121578.579000
SANRAMON!	6114746.937000	2121568.579000
SANRAMON!	6114776.938000	2121568.579000
SANRAMON!	6114776.938000	2121558.579000
SANRAMON!	6114786.938000	2121558.579000
SANRAMON!	6114786.938000	2121548.579000
SANRAMON!	6114796.937000	2121548.579000
SANRAMON!	6114796.937000	2121538.579000
SANRAMON!	6114806.937000	2121538.579000
SANRAMON!	6114806.937000	2121528.579000
SANRAMON!	6114816.937000	2121528.579000
SANRAMON!	6114816.937000	2121508.579000
SANRAMON!	6114826.937000	2121508.579000
SANRAMON!	6114826.937000	2121498.579000
SANRAMON!	6114836.937000	2121498.579000
SANRAMON!	6114836.937000	2121478.579000
SANRAMON!	6114846.937000	2121478.579000
SANRAMON!	6114846.937000	2121468.579000
SANRAMON!	6114856.937000	2121468.579000
SANRAMON!	6114856.937000	2121448.579000
SANRAMON!	6114866.937000	2121448.579000
SANRAMON!	6114866.937000	2121428.579000
SANRAMON!	6114876.937000	2121428.579000
SANRAMON!	6114876.937000	2121398.579000
SANRAMON!	6114886.937000	2121398.579000
SANRAMON!	6114886.937000	2121408.579000
SANRAMON!	6114906.937000	2121408.579000
SANRAMON!	6114906.937000	2121398.579000
SANRAMON!	6114916.937000	2121398.579000
SANRAMON!	6114916.937000	2121388.579000
SANRAMON!	6114936.938000	2121388.579000
SANRAMON!	6114936.938000	2121398.579000
SANRAMON!	6114946.938000	2121398.579000
SANRAMON!	6114946.938000	2121388.579000
SANRAMON!	6114956.937000	2121388.579000
SANRAMON!	6114956.937000	2121393.579000
SANRAMON!	6114966.937000	2121393.579000
SANRAMON!	6114966.937000	2121398.579000
SANRAMON!	6114976.937000	2121398.579000
SANRAMON!	6114976.937000	2121388.579000
SANRAMON!	6114996.937000	2121388.579000
SANRAMON!	6114996.937000	2121378.579000
SANRAMON!	6115016.937000	2121378.579000
SANRAMON!	6115016.937000	2121368.579000
SANRAMON!	6115026.937000	2121368.579000
SANRAMON!	6115026.937000	2121358.579000
SANRAMON!	6115036.937000	2121358.579000
SANRAMON!	6115036.937000	2121348.579000
SANRAMON!	6115041.937000	2121348.579000
SANRAMON!	6115041.937000	2121343.579000
SANRAMON!	6115046.937000	2121343.579000
SANRAMON!	6115046.937000	2121328.579000
SANRAMON!	6115056.937000	2121328.579000
SANRAMON!	6115056.937000	2121308.579000
SANRAMON!	6115066.937000	2121308.579000
SANRAMON!	6115066.937000	2121298.579000
SANRAMON!	6115076.937000	2121298.579000
SANRAMON!	6115076.937000	2121288.579000
SANRAMON!	6115086.937000	2121288.579000
SANRAMON!	6115086.937000	2121278.579000
SANRAMON!	6115096.937000	2121278.579000
SANRAMON!	6115096.937000	2121238.579000
SANRAMON!	6115106.938000	2121238.579000
SANRAMON!	6115106.938000	2121228.579000
SANRAMON!	6115116.938000	2121228.579000
SANRAMON!	6115116.938000	2121218.579000
SANRAMON!	6115196.937000	2121218.579000
SANRAMON!	6115196.937000	2121208.579000
SANRAMON!	6115216.937000	2121208.579000
SANRAMON!	6115216.937000	2121198.579000
SANRAMON!	6115236.937000	2121198.579000
SANRAMON!	6115236.937000	2121188.579000
SANRAMON!	6115256.937000	2121188.579000
SANRAMON!	6115256.937000	2121178.579000
SANRAMON!	6115266.938000	2121178.579000
SANRAMON!	6115276.938000	2121178.579000
SANRAMON!	6115276.938000	2121188.579000
SANRAMON!	6115316.937000	2121188.579000
SANRAMON!	6115316.937000	2121198.579000
SANRAMON!	6115326.937000	2121198.579000
SANRAMON!	6115326.937000	2121208.579000
SANRAMON!	6115346.937000	2121208.579000
SANRAMON!	6115346.937000	2121218.579000
SANRAMON!	6115376.937000	2121218.579000
SANRAMON!	6115376.937000	2121228.579000
SANRAMON!	6115386.937000	2121228.579000
SANRAMON!	6115386.937000	2121218.579000
SANRAMON!	6115396.937000	2121218.579000
SANRAMON!	6115396.937000	2121228.579000
SANRAMON!	6115416.937000	2121228.579000
SANRAMON!	6115416.937000	2121238.579000
SANRAMON!	6115436.938000	2121238.579000
SANRAMON!	6115436.938000	2121248.579000
SANRAMON!	6115466.937000	2121248.579000
SANRAMON!	6115466.937000	2121258.579000
SANRAMON!	6115476.937000	2121258.579000
SANRAMON!	6115476.937000	2121248.579000
SANRAMON!	6115496.937000	2121248.579000
SANRAMON!	6115496.937000	2121258.579000
SANRAMON!	6115526.937000	2121258.579000
SANRAMON!	6115526.937000	2121268.579000
SANRAMON!	6115546.937000	2121268.579000
SANRAMON!	6115546.937000	2121278.579000
SANRAMON!	6115556.937000	2121278.579000
SANRAMON!	6115556.937000	2121288.579000
SANRAMON!	6115576.937000	2121288.579000
SANRAMON!	6115576.937000	2121308.579000
SANRAMON!	6115616.937000	2121308.579000
SANRAMON!	6115616.937000	2121318.579000
SANRAMON!	6115626.937000	2121318.579000
SANRAMON!	6115626.937000	2121328.579000
SANRAMON!	6115646.937000	2121328.579000
SANRAMON!	6115646.937000	2121338.579000
SANRAMON!	6115706.937000	2121338.579000
SANRAMON!	6115706.937000	2121328.579000
SANRAMON!	6115736.937000	2121328.579000
SANRAMON!	6115736.937000	2121318.579000
SANRAMON!	6115746.937000	2121318.579000
SANRAMON!	6115746.937000	2121308.579000
SANRAMON!	6115756.938000	2121308.579000
SANRAMON!	6115756.938000	2121298.579000
SANRAMON!	6115786.937000	2121298.579000
SANRAMON!	6115786.937000	2121308.579000
SANRAMON!	6115806.937000	2121308.579000
SANRAMON!	6115806.937000	2121318.579000
SANRAMON!	6115816.937000	2121318.579000
SANRAMON!	6115816.937000	2121308.579000
SANRAMON!	6115836.937000	2121308.579000
SANRAMON!	6115836.937000	2121298.579000
SANRAMON!	6115856.937000	2121298.579000
SANRAMON!	6115856.937000	2121288.579000
SANRAMON!	6115916.937000	2121288.579000
SANRAMON!	6115916.937000	2121278.579000
SANRAMON!	6115926.938000	2121278.579000
SANRAMON!	6115926.938000	2121288.579000
SANRAMON!	6115936.938000	2121288.579000
SANRAMON!	6115936.938000	2121298.579000
SANRAMON!	6115976.937000	2121298.579000
SANRAMON!	6115976.937000	2121288.579000
SANRAMON!	6116026.937000	2121288.579000
SANRAMON!	6116026.937000	2121278.579000
SANRAMON!	6116066.937000	2121278.579000
SANRAMON!	6116066.937000	2121268.579000
SANRAMON!	6116096.938000	2121268.579000
SANRAMON!	6116096.938000	2121258.579000
SANRAMON!	6116116.937000	2121258.579000
SANRAMON!	6116116.937000	2121248.579000
SANRAMON!	6116136.937000	2121248.579000
SANRAMON!	6116136.937000	2121228.579000
SANRAMON!	6116146.937000	2121228.579000
SANRAMON!	6116146.937000	2121218.579000
SANRAMON!	6116166.937000	2121218.579000
SANRAMON!	6116166.937000	2121208.579000
SANRAMON!	6116176.937000	2121208.579000
SANRAMON!	6116176.937000	2121198.579000
SANRAMON!	6116186.937000	2121198.579000
SANRAMON!	6116186.937000	2121188.579000
SANRAMON!	6116206.937000	2121188.579000
SANRAMON!	6116206.937000	2121178.579000
SANRAMON!	6116236.937000	2121178.579000
SANRAMON!	6116236.937000	2121168.579000
SANRAMON!	6116246.938000	2121168.579000
SANRAMON!	6116246.938000	2121158.579000
SANRAMON!	6116276.937000	2121158.579000
SANRAMON!	6116276.937000	2121148.579000
SANRAMON!	6116286.937000	2121148.579000
SANRAMON!	6116286.937000	2121138.579000
SANRAMON!	6116296.937000	2121138.579000
SANRAMON!	6116296.937000	2121128.579000
SANRAMON!	6116316.937000	2121128.579000
SANRAMON!	6116316.937000	2121118.579000
SANRAMON!	6116346.937000	2121118.579000
SANRAMON!	6116346.937000	2121108.579000
SANRAMON!	6116396.937000	2121108.579000
SANRAMON!	6116396.937000	2121098.579000
SANRAMON!	6116436.937000	2121098.579000
SANRAMON!	6116436.937000	2121088.579000
SANRAMON!	6116476.937000	2121088.579000
SANRAMON!	6116486.937000	2121088.579000
SANRAMON!	6116486.937000	2121078.579000
SANRAMON!	6116506.937000	2121078.579000
SANRAMON!	6116506.937000	2121068.579000
SANRAMON!	6116526.937000	2121068.579000
SANRAMON!	6116526.937000	2121058.579000
SANRAMON!	6116536.937000	2121058.579000
SANRAMON!	6116536.937000	2121048.579000
SANRAMON!	6116556.937000	2121048.579000
SANRAMON!	6116556.937000	2121038.579000
SANRAMON!	6116576.938000	2121038.579000
SANRAMON!	6116576.938000	2121028.579000
SANRAMON!	6116586.938000	2121028.579000
SANRAMON!	6116586.938000	2121018.579000
SANRAMON!	6116596.937000	2121018.579000
SANRAMON!	6116596.937000	2121008.579000
SANRAMON!	6116616.937000	2121008.579000
SANRAMON!	6116616.937000	2120998.579000
SANRAMON!	6116636.937000	2120998.579000
SANRAMON!	6116636.937000	2120988.579000
SANRAMON!	6116656.937000	2120988.579000
SANRAMON!	6116656.937000	2120978.579000
SANRAMON!	6116676.937000	2120978.579000
SANRAMON!	6116676.937000	2120968.579000
SANRAMON!	6116686.937000	2120968.579000
SANRAMON!	6116686.937000	2120958.579000
SANRAMON!	6116696.937000	2120958.579000
SANRAMON!	6116696.937000	2120948.579000
SANRAMON!	6116716.937000	2120948.579000
SANRAMON!	6116716.937000	2120938.579000
SANRAMON!	6116726.937000	2120938.579000
SANRAMON!	6116726.937000	2120928.579000
SANRAMON!	6116746.938000	2120928.579000
SANRAMON!	6116746.938000	2120918.579000
SANRAMON!	6116766.937000	2120918.579000
SANRAMON!	6116766.937000	2120898.579000
SANRAMON!	6116786.937000	2120898.579000
SANRAMON!	6116786.937000	2120888.579000
SANRAMON!	6116796.937000	2120888.579000
SANRAMON!	6116796.937000	2120868.579000
SANRAMON!	6116806.937000	2120868.579000
SANRAMON!	6116806.937000	2120858.579000
SANRAMON!	6116816.937000	2120858.579000
SANRAMON!	6116816.937000	2120848.579000
SANRAMON!	6116826.937000	2120848.579000
SANRAMON!	6116826.937000	2120838.579000
SANRAMON!	6116836.937000	2120838.579000
SANRAMON!	6116836.937000	2120828.579000
SANRAMON!	6116846.937000	2120828.579000
SANRAMON!	6116846.937000	2120818.579000
SANRAMON!	6116866.937000	2120818.579000
SANRAMON!	6116866.937000	2120808.579000
SANRAMON!	6116876.937000	2120808.579000
SANRAMON!	6116876.937000	2120798.579000
SANRAMON!	6116886.937000	2120798.579000
SANRAMON!	6116886.937000	2120788.579000
SANRAMON!	6116896.937000	2120788.579000
SANRAMON!	6116896.937000	2120778.579000
SANRAMON!	6116906.938000	2120778.579000
SANRAMON!	6116906.938000	2120768.579000
SANRAMON!	6116916.938000	2120768.579000
SANRAMON!	6116916.938000	2120758.579000
SANRAMON!	6116926.937000	2120758.579000
SANRAMON!	6116926.937000	2120748.579000
SANRAMON!	6116936.937000	2120748.579000
SANRAMON!	6116936.937000	2120728.579000
SANRAMON!	6116946.937000	2120728.579000
SANRAMON!	6116946.937000	2120718.579000
SANRAMON!	6116956.937000	2120718.579000
SANRAMON!	6116956.937000	2120708.579000
SANRAMON!	6116966.937000	2120708.579000
SANRAMON!	6116966.937000	2120698.579000
SANRAMON!	6116996.937000	2120698.579000
SANRAMON!	6116996.937000	2120688.579000
SANRAMON!	6117006.937000	2120688.579000
SANRAMON!	6117006.937000	2120678.579000
SANRAMON!	6117016.937000	2120678.579000
SANRAMON!	6117016.937000	2120668.579000
SANRAMON!	6117026.937000	2120668.579000
SANRAMON!	6117026.937000	2120658.579000
SANRAMON!	6117036.937000	2120658.579000
SANRAMON!	6117036.937000	2120638.579000
SANRAMON!	6117046.937000	2120638.579000
SANRAMON!	6117046.937000	2120628.579000
SANRAMON!	6117056.937000	2120628.579000
SANRAMON!	6117056.937000	2120608.579000
SANRAMON!	6117066.938000	2120608.579000
SANRAMON!	6117066.938000	2120588.579000
SANRAMON!	6117076.938000	2120588.579000
SANRAMON!	6117076.938000	2120578.579000
SANRAMON!	6117086.938000	2120578.579000
SANRAMON!	6117096.937000	2120578.579000
SANRAMON!	6117096.937000	2120568.579000
SANRAMON!	6117116.937000	2120568.579000
SANRAMON!	6117116.937000	2120558.579000
SANRAMON!	6117126.937000	2120558.579000
SANRAMON!	6117126.937000	2120548.579000
SANRAMON!	6117196.937000	2120548.579000
SANRAMON!	6117196.937000	2120538.579000
SANRAMON!	6117256.937000	2120538.579000
SANRAMON!	6117256.937000	2120528.579000
SANRAMON!	6117286.937000	2120528.579000
SANRAMON!	6117286.937000	2120508.579000
SANRAMON!	6117296.937000	2120508.579000
SANRAMON!	6117296.937000	2120498.579000
SANRAMON!	6117306.937000	2120498.579000
SANRAMON!	6117306.937000	2120488.579000
SANRAMON!	6117346.937000	2120488.579000
SANRAMON!	6117346.937000	2120478.579000
SANRAMON!	6117356.937000	2120478.579000
SANRAMON!	6117356.937000	2120468.579000
SANRAMON!	6117376.937000	2120468.579000
SANRAMON!	6117376.937000	2120438.579000
SANRAMON!	6117396.938000	2120438.579000
SANRAMON!	6117396.938000	2120428.579000
SANRAMON!	6117406.938000	2120428.579000
SANRAMON!	6117406.938000	2120418.579000
SANRAMON!	6117416.937000	2120418.579000
SANRAMON!	6117416.937000	2120408.579000
SANRAMON!	6117426.937000	2120408.579000
SANRAMON!	6117426.937000	2120398.579000
SANRAMON!	6117436.937000	2120398.579000
SANRAMON!	6117436.937000	2120388.579000
SANRAMON!	6117446.937000	2120388.579000
SANRAMON!	6117446.937000	2120378.579000
SANRAMON!	6117456.937000	2120378.579000
SANRAMON!	6117456.937000	2120358.579000
SANRAMON!	6117466.937000	2120358.579000
SANRAMON!	6117466.937000	2120348.579000
SANRAMON!	6117476.937000	2120348.579000
SANRAMON!	6117476.937000	2120338.579000
SANRAMON!	6117486.937000	2120338.579000
SANRAMON!	6117486.937000	2120328.579000
SANRAMON!	6117496.937000	2120328.579000
SANRAMON!	6117496.937000	2120308.579000
SANRAMON!	6117506.937000	2120308.579000
SANRAMON!	6117506.937000	2120298.579000
SANRAMON!	6117516.937000	2120298.579000
SANRAMON!	6117516.937000	2120288.579000
SANRAMON!	6117526.937000	2120288.579000
SANRAMON!	6117526.937000	2120278.579000
SANRAMON!	6117586.937000	2120278.579000
SANRAMON!	6117586.937000	2120268.579000
SANRAMON!	6117596.937000	2120268.579000
SANRAMON!	6117596.937000	2120258.579000
SANRAMON!	6117606.937000	2120258.579000
SANRAMON!	6117606.937000	2120228.579000
SANRAMON!	6117616.937000	2120228.579000
SANRAMON!	6117616.937000	2120168.579000
SANRAMON!	6117626.937000	2120168.579000
SANRAMON!	6117626.937000	2120128.579000
SANRAMON!	6117636.937000	2120128.579000
SANRAMON!	6117636.937000	2120118.579000
SANRAMON!	6117666.937000	2120118.579000
SANRAMON!	6117666.937000	2120108.579000
SANRAMON!	6117676.937000	2120108.579000
SANRAMON!	6117676.937000	2120098.579000
SANRAMON!	6117706.937000	2120098.579000
SANRAMON!	6117706.937000	2120088.579000
SANRAMON!	6117716.937000	2120088.579000
SANRAMON!	6117716.937000	2120068.579000
SANRAMON!	6117726.938000	2120068.579000
SANRAMON!	6117726.938000	2120038.579000
SANRAMON!	6117736.938000	2120038.579000
SANRAMON!	6117736.938000	2120018.579000
SANRAMON!	6117816.937000	2120018.579000
SANRAMON!	6117816.937000	2120028.579000
SANRAMON!	6117826.937000	2120028.579000
SANRAMON!	6117826.937000	2120038.579000
SANRAMON!	6117906.938000	2120038.579000
SANRAMON!	6117906.938000	2120048.579000
SANRAMON!	6117936.937000	2120048.579000
SANRAMON!	6117936.937000	2120028.579000
SANRAMON!	6117946.937000	2120028.579000
SANRAMON!	6117946.937000	2120018.579000
SANRAMON!	6117956.937000	2120018.579000
SANRAMON!	6117956.937000	2120008.579000
SANRAMON!	6117976.937000	2120008.579000
SANRAMON!	6117976.937000	2119998.579000
SANRAMON!	6117986.937000	2119998.579000
SANRAMON!	6117986.937000	2119988.579000
SANRAMON!	6117996.937000	2119988.579000
SANRAMON!	6117996.937000	2119968.579000
SANRAMON!	6118016.937000	2119968.579000
SANRAMON!	6118016.937000	2119948.579000
SANRAMON!	6118026.937000	2119948.579000
SANRAMON!	6118026.937000	2119938.579000
SANRAMON!	6118036.937000	2119938.579000
SANRAMON!	6118036.937000	2119928.579000
SANRAMON!	6118056.938000	2119928.579000
SANRAMON!	6118056.938000	2119938.579000
SANRAMON!	6118066.938000	2119938.579000
SANRAMON!	6118066.938000	2119948.579000
SANRAMON!	6118076.937000	2119948.579000
SANRAMON!	6118076.937000	2119958.579000
SANRAMON!	6118086.937000	2119958.579000
SANRAMON!	6118086.937000	2119948.579000
SANRAMON!	6118136.937000	2119948.579000
SANRAMON!	6118136.937000	2119958.579000
SANRAMON!	6118166.937000	2119958.579000
SANRAMON!	6118166.937000	2119953.579000
SANRAMON!	6118176.937000	2119953.579000
SANRAMON!	6118176.937000	2119948.579000
SANRAMON!	6118196.937000	2119948.579000
SANRAMON!	6118196.937000	2119958.579000
SANRAMON!	6118206.937000	2119958.579000
SANRAMON!	6118206.937000	2119948.579000
SANRAMON!	6118216.938000	2119948.579000
SANRAMON!	6118216.938000	2119958.579000
SANRAMON!	6118246.937000	2119958.579000
SANRAMON!	6118246.937000	2119968.579000
SANRAMON!	6118376.937000	2119968.579000
SANRAMON!	6118376.937000	2119978.579000
SANRAMON!	6118386.938000	2119978.579000
SANRAMON!	6118386.938000	2119988.579000
SANRAMON!	6118396.938000	2119988.579000
SANRAMON!	6118396.938000	2119998.579000
SANRAMON!	6118406.937000	2119998.579000
SANRAMON!	6118406.937000	2120008.579000
SANRAMON!	6118416.937000	2120008.579000
SANRAMON!	6118416.937000	2120018.579000
SANRAMON!	6118436.937000	2120018.579000
SANRAMON!	6118436.937000	2120028.579000
SANRAMON!	6118446.937000	2120028.579000
SANRAMON!	6118446.937000	2120038.579000
SANRAMON!	6118456.937000	2120038.579000
SANRAMON!	6118456.937000	2120048.579000
SANRAMON!	6118466.937000	2120048.579000
SANRAMON!	6118466.937000	2120038.579000
SANRAMON!	6118526.937000	2120038.579000
SANRAMON!	6118526.937000	2120048.579000
SANRAMON!	6118636.937000	2120048.579000
SANRAMON!	6118636.937000	2120058.579000
SANRAMON!	6118646.937000	2120058.579000
SANRAMON!	6118646.937000	2120068.579000
SANRAMON!	6118686.937000	2120068.579000
SANRAMON!	6118686.937000	2120078.579000
SANRAMON!	6118706.938000	2120078.579000
SANRAMON!	6118706.938000	2120088.579000
SANRAMON!	6118786.937000	2120088.579000
SANRAMON!	6118786.937000	2120078.579000
SANRAMON!	6118796.937000	2120078.579000
SANRAMON!	6118796.937000	2120088.579000
SANRAMON!	6118826.937000	2120088.579000
SANRAMON!	6118826.937000	2120078.579000
SANRAMON!	6118836.937000	2120078.579000
SANRAMON!	6118836.937000	2120088.579000
SANRAMON!	6118846.937000	2120088.579000
SANRAMON!	6118846.937000	2120098.579000
SANRAMON!	6118856.937000	2120098.579000
SANRAMON!	6118866.937000	2120098.579000
SANRAMON!	6118866.937000	2120088.579000
SANRAMON!	6118876.938000	2120088.579000
SANRAMON!	6118876.938000	2120078.579000
SANRAMON!	6118886.938000	2120078.579000
SANRAMON!	6118886.938000	2120068.579000
SANRAMON!	6118896.937000	2120068.579000
SANRAMON!	6118896.937000	2120058.579000
SANRAMON!	6118906.937000	2120058.579000
SANRAMON!	6118906.937000	2120048.579000
SANRAMON!	6118916.937000	2120048.579000
SANRAMON!	6118916.937000	2120038.579000
SANRAMON!	6118926.937000	2120038.579000
SANRAMON!	6118926.937000	2120028.579000
SANRAMON!	6118966.937000	2120028.579000
SANRAMON!	6118966.937000	2120018.579000