[TITLE]
Scenario Run :  BASE

[OPTIONS]
;Option and Files Scenario Set: BASE, Base Simulation Options
FLOW_UNITS	CFS
INFILTRATION	GREEN_AMPT
FLOW_ROUTING	DYNWAVE
ALLOW_PONDING	NO
DRY_DAYS	5.000000
SKIP_STEADY_STATE 	NO
IGNORE_RAINFALL	NO
IGNORE_SNOWMELT	NO
IGNORE_GROUNDWATER	NO
IGNORE_QUALITY	NO
FORCE_MAIN_EQUATION	H-W
LINK_OFFSETS	DEPTH
MIN_SLOPE	0.000000
SYS_FLOW_TOL	5
LAT_FLOW_TOL	5
START_DATE	02/11/2004
START_TIME	00:00:00
END_DATE	02/13/2004
END_TIME	00:00:00
REPORT_START_DATE	02/11/2004
REPORT_START_TIME	00:00:00
SWEEP_START	01/01
SWEEP_END	12/31
WET_STEP	0:00:30
DRY_STEP	24:00:00
ROUTING_STEP	30
REPORT_STEP	0:00:30
INERTIAL_DAMPING	PARTIAL
VARIABLE_STEP	0.750000
MINIMUM_STEP	0.5
LENGTHENING_STEP	1
MIN_SURFAREA	0.000000
NORMAL_FLOW_LIMITED	SLOPE

[FILES]

[RAINGAGES]
BVILLE_14_10YRGAGE	CUMULATIVE	0.100000	1.000000	TIMESERIES	BVILLE_14_10YR		

[HYDROGRAPHS]

[EVAPORATION]
MONTHLY	0.000000	0.000000	0.000000	0.000000	0.000000	0.000000	0.000000	0.000000	0.000000	0.000000	0.000000	0.000000
DRY_ONLY	NO

[TEMPERATURE]

[ADJUSTMENTS]

[SUBCATCHMENTS]
10054CL#1	BVILLE_14_10YRGAGE	10054CL	0.055000	76.800000	0.001327	4.632344	0.000000
10055CL#1	BVILLE_14_10YRGAGE	10055CL	1.304000	41.200000	0.015375	15.922760	0.000000
10056CL#1	BVILLE_14_10YRGAGE	10056CL	0.407000	67.800000	0.008696	6.450448	0.000000
10078CL#1	BVILLE_14_10YRGAGE	10078CL	1.383000	44.900000	0.008769	10.464184	0.000000
10080CL#1	BVILLE_14_10YRGAGE	10080CL	0.838000	36.100000	0.006609	12.930088	0.000000
10088CL#1	BVILLE_14_10YRGAGE	10088CL	2.439000	57.600000	0.008791	11.084432	0.000000
10092SP#1	BVILLE_14_10YRGAGE	10092SP	0.809000	55.200000	0.010350	6.050616	0.000000
10093SP#1	BVILLE_14_10YRGAGE	10093SP	0.213000	69.700000	0.004284	4.348296	0.000000
10095SP#1	BVILLE_14_10YRGAGE	10095SP	0.090000	67.700000	0.003526	4.838656	0.000000
10096SP#1	BVILLE_14_10YRGAGE	10096SP	1.513000	32.600000	0.010493	14.197152	0.000000
10097SP#1	BVILLE_14_10YRGAGE	10097SP	3.416000	51.200000	0.011870	12.942552	0.000000
10101SP#1	BVILLE_14_10YRGAGE	10101SP	3.359000	65.500000	0.018386	7.587952	0.000000
10103SP#1	BVILLE_14_10YRGAGE	10103SP	1.782000	54.800000	0.008379	8.625744	0.000000
10106SP#1	BVILLE_14_10YRGAGE	10106SP	4.106000	26.500000	0.013773	19.895496	0.000000
10122SP#1	BVILLE_14_10YRGAGE	10122SP	2.184000	48.100000	0.012260	6.744992	0.000000
10125SP#1	BVILLE_14_10YRGAGE	10125SP	3.357000	45.900000	0.009526	9.137096	0.000000
10127SP#1	BVILLE_14_10YRGAGE	10127SP	0.860000	44.000000	0.004937	5.991248	0.000000
10133SP#1	BVILLE_14_10YRGAGE	10133SP	0.634000	44.300000	0.005392	6.938512	0.000000
10138SP#1	BVILLE_14_10YRGAGE	10138SP	6.804000	17.400000	0.017539	10.905672	0.000000
10140SP#1	BVILLE_14_10YRGAGE	10140SP	1.668000	47.100000	0.007209	5.549760	0.000000
10146SP#1	BVILLE_14_10YRGAGE	10146SP	0.595000	65.500000	0.011149	3.886144	0.000000
10150SP#1	BVILLE_14_10YRGAGE	10150SP	4.458000	30.300000	0.012970	12.975680	0.000000
10156SP#1	BVILLE_14_10YRGAGE	10156SP	0.254000	33.100000	0.008202	4.172160	0.000000
10157SP#1	BVILLE_14_10YRGAGE	10157SP	4.900000	36.900000	0.018986	10.831872	0.000000
10167SP#1	BVILLE_14_10YRGAGE	10167SP	0.860000	33.200000	0.007028	9.816384	0.000000
10168SP#1	BVILLE_14_10YRGAGE	10168SP	0.097000	73.400000	0.002580	9.858696	0.000000
10170SP#1	BVILLE_14_10YRGAGE	10170SP	5.541000	44.100000	0.015541	12.442680	0.000000
10231SP#1	BVILLE_14_10YRGAGE	10231SP	1.211000	56.600000	0.014624	8.598520	0.000000
10232SP#1	BVILLE_14_10YRGAGE	10232SP	4.806000	26.500000	0.020755	8.296760	0.000000
10233SP#1	BVILLE_14_10YRGAGE	10233SP	0.432000	28.500000	0.009063	9.651072	0.000000
10299W#1	BVILLE_14_10YRGAGE	10299W	0.611000	31.800000	0.008587	11.213664	0.000000
10310SP#1	BVILLE_14_10YRGAGE	10310SP	0.540000	62.900000	0.009946	6.582632	0.000000
10311SP#1	BVILLE_14_10YRGAGE	10311SP	0.030000	68.300000	0.001098	3.952728	0.000000
10312SP#1	BVILLE_14_10YRGAGE	10312SP	0.039000	94.900000	0.001234	3.553552	0.000000
10322SP#1	BVILLE_14_10YRGAGE	10322SP	0.701000	49.200000	0.008061	5.439224	0.000000
10326SP#1	BVILLE_14_10YRGAGE	10326SP	0.428000	12.000000	0.005329	8.435832	0.000000
10328SP#1	BVILLE_14_10YRGAGE	10328SP	0.250000	1.200000	0.003419	12.787408	0.000000
10329SP#1	BVILLE_14_10YRGAGE	10329SP	2.231000	9.600000	0.010535	25.944144	0.000000
10368SP#1	BVILLE_14_10YRGAGE	10368SP	9.854000	72.600000	0.023508	6.994272	0.000000
10373SP#1	BVILLE_14_10YRGAGE	10373SP	3.242000	66.800000	0.010836	5.831840	0.000000
10381SP#1	BVILLE_14_10YRGAGE	10381SP	0.261000	55.100000	0.007070	3.560112	0.000000
10383SP#1	BVILLE_14_10YRGAGE	10383SP	1.918000	24.500000	0.017214	4.083600	0.000000
10386SP#1	BVILLE_14_10YRGAGE	10386SP	0.318000	47.800000	0.004345	5.220448	0.000000
10389SP#1	BVILLE_14_10YRGAGE	10389SP	1.476000	26.600000	0.008793	14.612072	0.000000
10418KL#1	BVILLE_14_10YRGAGE	10418KL	1.729000	80.000000	0.016599	4.572976	0.000000
10419NW#1	BVILLE_14_10YRGAGE	10419NW	6.129000	25.900000	0.000298	5.855456	0.000000
10456SP#1	BVILLE_14_10YRGAGE	10456SP	5.457000	37.200000	0.019606	7.747688	0.000000
10460SP#1	BVILLE_14_10YRGAGE	10460SP	5.774000	26.400000	0.014095	17.279696	0.000000
10464SP#1	BVILLE_14_10YRGAGE	10464SP	1.901000	36.500000	0.012603	10.811536	0.000000
10472SP#1	BVILLE_14_10YRGAGE	10472SP	5.187000	45.300000	0.012122	7.763104	0.000000
10480SP#1	BVILLE_14_10YRGAGE	10480SP	1.952000	56.600000	0.007367	6.050288	0.000000
10483SP#1	BVILLE_14_10YRGAGE	10483SP	2.570000	84.100000	0.008310	4.553624	0.000000
10486SP#1	BVILLE_14_10YRGAGE	10486SP	1.360000	50.900000	0.009894	12.885808	0.000000
10488SP#1	BVILLE_14_10YRGAGE	10488SP	1.450000	91.700000	0.007209	3.555192	0.000000
10490SP#1	BVILLE_14_10YRGAGE	10490SP	2.028000	82.800000	0.009827	5.388384	0.000000
10492SP#1	BVILLE_14_10YRGAGE	10492SP	2.617000	50.100000	0.011546	10.882056	0.000000
10496SP#1	BVILLE_14_10YRGAGE	10496SP	2.032000	39.100000	0.011592	13.021600	0.000000
10500SP#1	BVILLE_14_10YRGAGE	10500SP	0.204000	88.000000	0.003951	6.462912	0.000000
10501SP#1	BVILLE_14_10YRGAGE	10501SP	1.059000	68.600000	0.005282	5.568784	0.000000
10503SP#1	BVILLE_14_10YRGAGE	10503SP	1.934000	54.700000	0.005924	6.954912	0.000000
10506SP#1	BVILLE_14_10YRGAGE	10506SP	0.170000	64.500000	0.002571	4.014392	0.000000
10507SP#1	BVILLE_14_10YRGAGE	10507SP	0.383000	47.500000	0.004246	4.458832	0.000000
10508SP#1	BVILLE_14_10YRGAGE	10508SP	0.438000	66.400000	0.004022	5.367392	0.000000
10510SP#1	BVILLE_14_10YRGAGE	10510SP	0.534000	67.700000	0.006424	4.120336	0.000000
10513SP#1	BVILLE_14_10YRGAGE	10513SP	1.128000	62.100000	0.006726	6.200184	0.000000
10518SP#1	BVILLE_14_10YRGAGE	10518SP	0.419000	49.800000	0.004755	6.371400	0.000000
10519SP#1	BVILLE_14_10YRGAGE	10519SP	2.299000	79.700000	0.011342	5.695064	0.000000
10524SP#1	BVILLE_14_10YRGAGE	10524SP	0.394000	83.600000	0.004659	5.021024	0.000000
10528SP#1	BVILLE_14_10YRGAGE	10528SP	0.412000	54.200000	0.004963	4.215784	0.000000
10536SP#1	BVILLE_14_10YRGAGE	10536SP	0.399000	49.500000	0.005053	5.289328	0.000000
10542SP#1	BVILLE_14_10YRGAGE	10542SP	0.279000	48.700000	0.004700	13.703184	0.000000
10544SP#1	BVILLE_14_10YRGAGE	10544SP	0.022000	39.500000	0.001112	15.816160	0.000000
10545SP#1	BVILLE_14_10YRGAGE	10545SP	0.238000	37.300000	0.004913	7.654536	0.000000
10548SP#1	BVILLE_14_10YRGAGE	10548SP	1.265000	81.400000	0.017200	4.878344	0.000000
10557SP#1	BVILLE_14_10YRGAGE	10557SP	2.985000	75.100000	0.007462	5.936144	0.000000
10558SP#1	BVILLE_14_10YRGAGE	10558SP	1.470000	94.300000	0.005878	6.330400	0.000000
10569SP#1	BVILLE_14_10YRGAGE	10569SP	1.501000	65.400000	0.013316	4.545752	0.000000
10570SP#1	BVILLE_14_10YRGAGE	10570SP	0.847000	94.900000	0.007210	3.792992	0.000000
10574SP#1	BVILLE_14_10YRGAGE	10574SP	0.224000	52.200000	0.002667	4.593312	0.000000
10577SP#1	BVILLE_14_10YRGAGE	10577SP	1.132000	80.800000	0.010262	5.027584	0.000000
10578SP#1	BVILLE_14_10YRGAGE	10578SP	0.592000	78.100000	0.004455	4.291880	0.000000
10579SP#1	BVILLE_14_10YRGAGE	10579SP	0.684000	74.000000	0.004755	5.428072	0.000000
10580SP#1	BVILLE_14_10YRGAGE	10580SP	0.527000	87.000000	0.005649	6.242168	0.000000
10582SP#1	BVILLE_14_10YRGAGE	10582SP	0.473000	88.500000	0.005071	6.054880	0.000000
10597KL#1	BVILLE_14_10YRGAGE	10597KL	0.554000	100.000000	0.006218	3.493200	0.000000
10605KL#1	BVILLE_14_10YRGAGE	10605KL	0.350000	70.000000	0.005075	7.708000	0.000000
10606KL#1	BVILLE_14_10YRGAGE	10606KL	0.380000	70.000000	0.007028	5.576000	0.000000
10608KL#1	BVILLE_14_10YRGAGE	10608KL	6.240000	50.000000	0.017649	7.675200	0.000000
10616KL#1	BVILLE_14_10YRGAGE	10616KL	5.729000	40.000000	0.016874	6.444544	0.000000
10618KL#1	BVILLE_14_10YRGAGE	10618KL	3.888000	40.000000	0.013294	7.463640	0.000000
10624KL#1	BVILLE_14_10YRGAGE	10624KL	1.347000	30.000000	0.004109	7.982208	0.000000
10627KL#1	BVILLE_14_10YRGAGE	10627KL	4.362000	30.000000	0.012582	6.656432	0.000000
10632KL#1	BVILLE_14_10YRGAGE	10632KL	6.135000	30.000000	0.014211	7.248144	0.000000
10635KL#1	BVILLE_14_10YRGAGE	10635KL	1.384000	50.000000	0.009640	6.702680	0.000000
10637KL#1	BVILLE_14_10YRGAGE	10637KL	1.173000	60.000000	0.009409	11.483936	0.000000
10645KL#1	BVILLE_14_10YRGAGE	10645KL	0.780000	50.000000	0.007276	4.724840	0.000000
10655SP#1	BVILLE_14_10YRGAGE	10655SP	2.220000	57.000000	0.007345	8.077328	0.000000
10657SP#1	BVILLE_14_10YRGAGE	10657SP	0.183000	52.900000	0.003337	4.066216	0.000000
10660SP#1	BVILLE_14_10YRGAGE	10660SP	3.057000	47.500000	0.010125	7.945800	0.000000
10671SP#1	BVILLE_14_10YRGAGE	10671SP	2.811000	26.900000	0.010859	12.124520	0.000000
10678SP#1	BVILLE_14_10YRGAGE	10678SP	2.610000	29.400000	0.011729	13.939344	0.000000
10680SP#1	BVILLE_14_10YRGAGE	10680SP	0.217000	60.100000	0.004477	5.333280	0.000000
10682SP#1	BVILLE_14_10YRGAGE	10682SP	1.247000	57.700000	0.008492	9.409992	0.000000
10686SP#1	BVILLE_14_10YRGAGE	10686SP	2.095000	37.300000	0.008265	15.840760	0.000000
10697SP#1	BVILLE_14_10YRGAGE	10697SP	4.725000	60.000000	0.012810	6.634784	0.000000
10698SP#1	BVILLE_14_10YRGAGE	10698SP	0.507000	36.500000	0.007778	8.167856	0.000000
10699SP#1	BVILLE_14_10YRGAGE	10699SP	1.375000	80.200000	0.009894	5.787232	0.000000
10700SP#1	BVILLE_14_10YRGAGE	10700SP	2.572000	54.200000	0.009781	12.073352	0.000000
10704SP#1	BVILLE_14_10YRGAGE	10704SP	0.221000	55.500000	0.003355	7.646664	0.000000
10706SP#1	BVILLE_14_10YRGAGE	10706SP	0.156000	14.800000	0.005504	8.854360	0.000000
10709SP#1	BVILLE_14_10YRGAGE	10709SP	3.119000	33.900000	0.007391	15.765320	0.000000
10712SP#1	BVILLE_14_10YRGAGE	10712SP	0.442000	43.400000	0.004021	9.504128	0.000000
10782KL#1	BVILLE_14_10YRGAGE	10782KL	0.927000	50.000000	0.008567	8.693640	0.000000
10783KL#1	BVILLE_14_10YRGAGE	10783KL	1.081000	40.000000	0.017058	11.188408	0.000000
10786KL#1	BVILLE_14_10YRGAGE	10786KL	1.857000	40.000000	0.007230	11.662696	0.000000
10790KL#1	BVILLE_14_10YRGAGE	10790KL	5.584000	40.000000	0.016713	10.541592	0.000000
10801KL#1	BVILLE_14_10YRGAGE	10801KL	2.704000	40.000000	0.010400	12.474824	0.000000
10807KL#1	BVILLE_14_10YRGAGE	10807KL	0.802000	20.000000	0.004797	8.420744	0.000000
10809KL#1	BVILLE_14_10YRGAGE	10809KL	3.789000	30.000000	0.010652	11.449496	0.000000
10812KL#1	BVILLE_14_10YRGAGE	10812KL	0.490000	40.000000	0.007666	7.339656	0.000000
10815KL#1	BVILLE_14_10YRGAGE	10815KL	1.823000	30.000000	0.008702	8.149488	0.000000
10828KL#1	BVILLE_14_10YRGAGE	10828KL	0.284000	90.000000	0.008896	5.412656	0.000000
10829KL#1	BVILLE_14_10YRGAGE	10829KL	1.311000	20.000000	0.007094	11.530512	0.000000
10840KL#1	BVILLE_14_10YRGAGE	10840KL	8.473000	20.000000	0.009711	10.556024	0.000000
10847KL#1	BVILLE_14_10YRGAGE	10847KL	4.162000	40.000000	0.016346	7.297344	0.000000
10848KL#1	BVILLE_14_10YRGAGE	10848KL	8.361000	30.000000	0.014623	9.862304	0.000000
10852SP#1	BVILLE_14_10YRGAGE	10852SP	3.747000	26.700000	0.018136	10.343152	0.000000
10854SP#1	BVILLE_14_10YRGAGE	10854SP	5.914000	10.000000	0.013683	20.408488	0.000000
10871SP#1	BVILLE_14_10YRGAGE	10871SP	5.864000	28.700000	0.016437	14.125648	0.000000
10884SP#1	BVILLE_14_10YRGAGE	10884SP	5.174000	36.100000	0.017081	10.038768	0.000000
10891SP#1	BVILLE_14_10YRGAGE	10891SP	7.621000	36.800000	0.023578	8.389256	0.000000
10897SP#1	BVILLE_14_10YRGAGE	10897SP	4.263000	38.100000	0.016805	12.816272	0.000000
10899SP#1	BVILLE_14_10YRGAGE	10899SP	4.145000	32.200000	0.010859	7.301936	0.000000
10903SP#1	BVILLE_14_10YRGAGE	10903SP	1.771000	21.800000	0.010539	6.231344	0.000000
10906SP#1	BVILLE_14_10YRGAGE	10906SP	0.502000	29.700000	0.007307	12.284256	0.000000
10907SP#1	BVILLE_14_10YRGAGE	10907SP	2.026000	45.700000	0.010283	15.200504	0.000000
10910SP#1	BVILLE_14_10YRGAGE	10910SP	2.312000	37.000000	0.009502	13.191832	0.000000
10913SP#1	BVILLE_14_10YRGAGE	10913SP	1.182000	44.800000	0.008745	7.991392	0.000000
10917SP#1	BVILLE_14_10YRGAGE	10917SP	0.977000	37.100000	0.006408	7.130392	0.000000
10983SP#1	BVILLE_14_10YRGAGE	10983SP	1.595000	38.600000	0.010099	7.206816	0.000000
10985SP#1	BVILLE_14_10YRGAGE	10985SP	1.907000	40.600000	0.011453	7.212720	0.000000
11021SP#1	BVILLE_14_10YRGAGE	11021SP	6.216000	46.300000	0.022704	9.306672	0.000000
11034SP#1	BVILLE_14_10YRGAGE	11034SP	4.417000	39.500000	0.017997	7.001160	0.000000
11039KL#1	BVILLE_14_10YRGAGE	11039KL	3.349000	50.000000	0.013040	9.128568	0.000000
11051SP#1	BVILLE_14_10YRGAGE	11051SP	7.420000	31.100000	0.016989	7.570896	0.000000
11055SP#1	BVILLE_14_10YRGAGE	11055SP	1.791000	36.800000	0.008010	13.834056	0.000000
11061SP#1	BVILLE_14_10YRGAGE	11061SP	14.178000	17.800000	0.025391	15.773848	0.000000
11211SP#1	BVILLE_14_10YRGAGE	11211SP	1.958000	78.700000	0.009320	4.254160	0.000000
11212SP#1	BVILLE_14_10YRGAGE	11212SP	2.999000	42.100000	0.013317	15.148680	0.000000
11317W#1	BVILLE_14_10YRGAGE	11317W	7.143000	13.700000	0.011272	15.040440	0.000000
11322W#1	BVILLE_14_10YRGAGE	11322W	0.706000	41.100000	0.005785	7.922840	0.000000
11326W#1	BVILLE_14_10YRGAGE	11326W	1.762000	20.000000	0.016142	8.748744	0.000000
11327W#1	BVILLE_14_10YRGAGE	11327W	2.211000	7.300000	0.009687	18.171856	0.000000
11344W#1	BVILLE_14_10YRGAGE	11344W	0.634000	43.300000	0.007318	5.492688	0.000000
11349W#1	BVILLE_14_10YRGAGE	11349W	1.741000	33.100000	0.010632	5.489080	0.000000
11355W#1	BVILLE_14_10YRGAGE	11355W	4.953000	17.000000	0.011111	11.507224	0.000000
11359W#1	BVILLE_14_10YRGAGE	11359W	7.168000	25.600000	0.017471	9.567760	0.000000
11416W#1	BVILLE_14_10YRGAGE	11416W	0.212000	52.700000	0.002641	5.489736	0.000000
11423W#1	BVILLE_14_10YRGAGE	11423W	0.191000	47.600000	0.003468	4.613648	0.000000
11424W#1	BVILLE_14_10YRGAGE	11424W	0.379000	59.400000	0.003929	5.367392	0.000000
11485SP#1	BVILLE_14_10YRGAGE	11485SP	1.122000	40.300000	0.008538	22.892760	0.000000
11536CL#1	BVILLE_14_10YRGAGE	11536CL	3.984000	29.000000	0.015196	14.159432	0.000000
11539CL#1	BVILLE_14_10YRGAGE	11539CL	0.618000	31.300000	0.004778	6.020440	0.000000
11548SP#1	BVILLE_14_10YRGAGE	11548SP	22.714000	11.100000	0.035561	16.236328	0.000000
11550SP#1	BVILLE_14_10YRGAGE	11550SP	4.149000	9.000000	0.012145	20.392416	0.000000
11554CL#1	BVILLE_14_10YRGAGE	11554CL	0.271000	63.300000	0.002019	8.270848	0.000000
11559CL#1	BVILLE_14_10YRGAGE	11559CL	1.000000	31.000000	0.006058	11.286480	0.000000
11560CL#1	BVILLE_14_10YRGAGE	11560CL	0.885000	59.800000	0.005695	8.091432	0.000000
11612W#1	BVILLE_14_10YRGAGE	11612W	2.469000	36.400000	0.013338	13.980344	0.000000
11672SP#1	BVILLE_14_10YRGAGE	11672SP	0.543000	94.100000	0.007416	5.476288	0.000000
11673SP#1	BVILLE_14_10YRGAGE	11673SP	0.712000	50.000000	0.003949	5.044968	0.000000
11679SP#1	BVILLE_14_10YRGAGE	11679SP	0.261000	11.000000	0.004138	3.351504	0.000000
11682SP#1	BVILLE_14_10YRGAGE	11682SP	0.462000	14.500000	0.004707	1.198184	0.000000
11684SP#1	BVILLE_14_10YRGAGE	11684SP	0.146000	17.400000	0.003008	0.504464	0.000000
11685SP#1	BVILLE_14_10YRGAGE	11685SP	0.416000	27.400000	0.003192	18.579232	0.000000
11689SP#1	BVILLE_14_10YRGAGE	11689SP	0.486000	21.600000	0.005097	9.015408	0.000000
11692SP#1	BVILLE_14_10YRGAGE	11692SP	0.966000	37.200000	0.005646	9.221392	0.000000
11693SP#1	BVILLE_14_10YRGAGE	11693SP	2.798000	59.800000	0.013107	5.034144	0.000000
11694SP#1	BVILLE_14_10YRGAGE	11694SP	0.508000	64.000000	0.005072	3.471552	0.000000
11695SP#1	BVILLE_14_10YRGAGE	11695SP	0.117000	72.800000	0.002510	4.813400	0.000000
11699SP#1	BVILLE_14_10YRGAGE	11699SP	0.295000	32.700000	0.002477	2.850976	0.000000
11701SP#1	BVILLE_14_10YRGAGE	11701SP	1.729000	35.500000	0.007806	4.363384	0.000000
11706SP#1	BVILLE_14_10YRGAGE	11706SP	1.327000	59.900000	0.010212	2.999560	0.000000
11712SP#1	BVILLE_14_10YRGAGE	11712SP	1.747000	92.700000	0.008884	2.500672	0.000000
11715SP#1	BVILLE_14_10YRGAGE	11715SP	3.313000	97.500000	0.010171	2.898536	0.000000
11716SP#1	BVILLE_14_10YRGAGE	11716SP	0.127000	97.000000	0.001726	3.427600	0.000000
11730SP#1	BVILLE_14_10YRGAGE	11730SP	2.224000	87.800000	0.009069	3.589960	0.000000
11733W#1	BVILLE_14_10YRGAGE	11733W	3.766000	26.400000	0.010722	6.529496	0.000000
11739W#1	BVILLE_14_10YRGAGE	11739W	2.335000	19.400000	0.022838	14.428392	0.000000
11740W#1	BVILLE_14_10YRGAGE	11740W	3.504000	12.400000	0.027040	23.158440	0.000000
11744W#1	BVILLE_14_10YRGAGE	11744W	2.346000	26.500000	0.015310	10.484520	0.000000
11745W#1	BVILLE_14_10YRGAGE	11745W	7.172000	14.300000	0.014326	16.155312	0.000000
11853W#1	BVILLE_14_10YRGAGE	11853W	3.819000	40.200000	0.018365	6.846016	0.000000
11854W#1	BVILLE_14_10YRGAGE	11854W	1.098000	38.100000	0.007417	5.719336	0.000000
11861W#1	BVILLE_14_10YRGAGE	11861W	0.282000	23.200000	0.004139	7.418376	0.000000
11874W#1	BVILLE_14_10YRGAGE	11874W	3.031000	26.000000	0.020545	20.890976	0.000000
11877W#1	BVILLE_14_10YRGAGE	11877W	1.081000	44.800000	0.012995	7.288488	0.000000
11882W#1	BVILLE_14_10YRGAGE	11882W	0.175000	37.600000	0.003839	6.893248	0.000000
11883W#1	BVILLE_14_10YRGAGE	11883W	7.393000	21.300000	0.022314	8.179992	0.000000
11884W#1	BVILLE_14_10YRGAGE	11884W	2.818000	28.500000	0.019512	8.341368	0.000000
11898SP#1	BVILLE_14_10YRGAGE	11898SP	8.562000	13.900000	0.031634	23.246016	0.000000
11900SP#1	BVILLE_14_10YRGAGE	11900SP	1.661000	2.800000	0.013361	22.285304	0.000000
11901SP#1	BVILLE_14_10YRGAGE	11901SP	0.518000	3.900000	0.006494	6.395672	0.000000
11903SP#1	BVILLE_14_10YRGAGE	11903SP	3.026000	1.600000	0.008771	12.904176	0.000000
11909SP#1	BVILLE_14_10YRGAGE	11909SP	2.453000	5.100000	0.008585	8.201640	0.000000
11911SP#1	BVILLE_14_10YRGAGE	11911SP	8.942000	9.400000	0.017125	11.203824	0.000000
11914SP#1	BVILLE_14_10YRGAGE	11914SP	0.478000	16.200000	0.007421	9.713720	0.000000
11925SP#1	BVILLE_14_10YRGAGE	11925SP	2.597000	27.500000	0.010720	15.499968	0.000000
11946NW#1	BVILLE_14_10YRGAGE	11946NW	10.134000	19.200000	0.021327	4.376176	0.000000
11947SP#1	BVILLE_14_10YRGAGE	11947SP	1.354000	38.200000	0.013566	7.524976	0.000000
11953SP#1	BVILLE_14_10YRGAGE	11953SP	0.991000	23.000000	0.008652	13.316144	0.000000
11965SP#1	BVILLE_14_10YRGAGE	11965SP	0.132000	10.800000	0.001679	5.492032	0.000000
11967SP#1	BVILLE_14_10YRGAGE	11967SP	4.516000	66.100000	0.012901	7.908080	0.000000
11969SP#1	BVILLE_14_10YRGAGE	11969SP	12.667000	22.900000	0.022267	8.460104	0.000000
11971SP#1	BVILLE_14_10YRGAGE	11971SP	5.175000	12.900000	0.014257	12.054656	0.000000
11972SP#1	BVILLE_14_10YRGAGE	11972SP	4.202000	14.400000	0.012809	9.095440	0.000000
11973SP#1	BVILLE_14_10YRGAGE	11973SP	17.540000	30.200000	0.036043	7.650928	0.000000
11979SP#1	BVILLE_14_10YRGAGE	11979SP	8.031000	30.500000	0.035583	9.887888	0.000000
11994SP#1	BVILLE_14_10YRGAGE	11994SP	2.140000	21.100000	0.007829	8.432224	0.000000
11995SP#1	BVILLE_14_10YRGAGE	11995SP	0.499000	77.800000	0.004520	4.792736	0.000000
11999SP#1	BVILLE_14_10YRGAGE	11999SP	1.205000	28.500000	0.005233	4.624800	0.000000
12001SP#1	BVILLE_14_10YRGAGE	12001SP	1.915000	56.500000	0.010470	7.238632	0.000000
12003SP#1	BVILLE_14_10YRGAGE	12003SP	1.597000	37.000000	0.014371	10.430400	0.000000
12009SP#1	BVILLE_14_10YRGAGE	12009SP	0.772000	72.500000	0.005968	3.595208	0.000000
12014SP#1	BVILLE_14_10YRGAGE	12014SP	1.331000	93.200000	0.008263	3.857280	0.000000
12025SP#1	BVILLE_14_10YRGAGE	12025SP	1.482000	65.800000	0.010996	3.827104	0.000000
12026SP#1	BVILLE_14_10YRGAGE	12026SP	0.326000	85.600000	0.004705	4.930168	0.000000
12027SP#1	BVILLE_14_10YRGAGE	12027SP	0.813000	69.700000	0.010653	7.137608	0.000000
12028SP#1	BVILLE_14_10YRGAGE	12028SP	0.384000	68.000000	0.006474	7.382624	0.000000
12029SP#1	BVILLE_14_10YRGAGE	12029SP	0.268000	100.000000	0.006613	3.576840	0.000000
12030SP#1	BVILLE_14_10YRGAGE	12030SP	1.802000	59.800000	0.015517	5.223728	0.000000
12034SP#1	BVILLE_14_10YRGAGE	12034SP	0.160000	98.600000	0.002157	2.459672	0.000000
12038SP#1	BVILLE_14_10YRGAGE	12038SP	0.606000	91.800000	0.008605	4.339768	0.000000
12040SP#1	BVILLE_14_10YRGAGE	12040SP	0.358000	67.600000	0.005286	6.783696	0.000000
12041SP#1	BVILLE_14_10YRGAGE	12041SP	0.574000	65.500000	0.006938	7.163848	0.000000
12044SP#1	BVILLE_14_10YRGAGE	12044SP	1.245000	84.000000	0.006978	3.272784	0.000000
12050SP#1	BVILLE_14_10YRGAGE	12050SP	0.118000	97.600000	0.002649	2.903784	0.000000
12051SP#1	BVILLE_14_10YRGAGE	12051SP	0.092000	100.000000	0.002523	3.833008	0.000000
12053SP#1	BVILLE_14_10YRGAGE	12053SP	0.118000	100.000000	0.002530	3.676224	0.000000
12054SP#1	BVILLE_14_10YRGAGE	12054SP	0.175000	69.300000	0.002634	6.394360	0.000000
12055SP#1	BVILLE_14_10YRGAGE	12055SP	0.332000	86.400000	0.003422	5.384120	0.000000
12057SP#1	BVILLE_14_10YRGAGE	12057SP	0.381000	82.800000	0.003784	6.990008	0.000000
12059SP#1	BVILLE_14_10YRGAGE	12059SP	0.566000	76.200000	0.004981	7.517432	0.000000
12060SP#1	BVILLE_14_10YRGAGE	12060SP	0.866000	77.600000	0.008174	5.865296	0.000000
12062SP#1	BVILLE_14_10YRGAGE	12062SP	0.775000	98.300000	0.009113	9.826552	0.000000
12066SP#1	BVILLE_14_10YRGAGE	12066SP	0.279000	48.200000	0.003240	4.787816	0.000000
12067SP#1	BVILLE_14_10YRGAGE	12067SP	0.298000	65.400000	0.004426	3.435144	0.000000
12071SP#1	BVILLE_14_10YRGAGE	12071SP	0.779000	96.500000	0.005461	7.171392	0.000000
12073SP#1	BVILLE_14_10YRGAGE	12073SP	0.300000	70.700000	0.004753	3.317392	0.000000
12074SP#1	BVILLE_14_10YRGAGE	12074SP	0.337000	87.700000	0.006880	3.243920	0.000000
12077SP#1	BVILLE_14_10YRGAGE	12077SP	0.134000	100.000000	0.003648	2.914936	0.000000
12135SP#1	BVILLE_14_10YRGAGE	12135SP	3.148000	36.200000	0.014208	16.320624	0.000000
12151SP#1	BVILLE_14_10YRGAGE	12151SP	0.260000	67.300000	0.002864	7.190744	0.000000
12306NW#1	BVILLE_14_10YRGAGE	12306NW	0.027000	7.600000	0.011648	7.954328	0.000000
12308NW#1	BVILLE_14_10YRGAGE	12308NW	3.470000	2.500000	0.011203	8.475192	0.000000
12391SP#1	BVILLE_14_10YRGAGE	12391SP	4.327000	38.700000	0.014578	10.015152	0.000000
12405SP#1	BVILLE_14_10YRGAGE	12405SP	0.896000	38.200000	0.008679	16.837224	0.000000
12408KL#1	BVILLE_14_10YRGAGE	12408KL	6.470000	30.000000	0.019766	9.076088	0.000000
12413SP#1	BVILLE_14_10YRGAGE	12413SP	1.101000	62.900000	0.010375	11.992008	0.000000
12420SP#1	BVILLE_14_10YRGAGE	12420SP	0.356000	90.700000	0.004149	7.323256	0.000000
12421SP#1	BVILLE_14_10YRGAGE	12421SP	2.096000	73.900000	0.009389	7.657488	0.000000
12457SP#1	BVILLE_14_10YRGAGE	12457SP	2.040000	80.600000	0.011614	4.324680	0.000000
12458NW#1	BVILLE_14_10YRGAGE	12458NW	2.611000	32.200000	0.001446	15.893240	0.000000
12475SP#1	BVILLE_14_10YRGAGE	12475SP	4.224000	76.700000	0.010032	12.896960	0.000000
12589KL#1	BVILLE_14_10YRGAGE	12589KL	1.270000	30.000000	0.012988	5.641600	0.000000
12703SP#1	BVILLE_14_10YRGAGE	12703SP	1.644000	56.600000	0.008771	6.943760	0.000000
12704SP#1	BVILLE_14_10YRGAGE	12704SP	0.504000	45.700000	0.008748	7.525632	0.000000
12706SP#1	BVILLE_14_10YRGAGE	12706SP	0.571000	55.700000	0.008028	5.136152	0.000000
12779W#1	BVILLE_14_10YRGAGE	12779W	2.355000	29.400000	0.012464	7.784424	0.000000
12788W#1	BVILLE_14_10YRGAGE	12788W	7.486000	12.700000	0.029019	14.256848	0.000000
12791W#1	BVILLE_14_10YRGAGE	12791W	21.937000	26.300000	0.027801	9.049192	0.000000
12796W#1	BVILLE_14_10YRGAGE	12796W	18.540000	18.700000	0.023580	13.087200	0.000000
13132W#1	BVILLE_14_10YRGAGE	13132W	1.161000	60.600000	0.007968	4.423080	0.000000
13219SP#1	BVILLE_14_10YRGAGE	13219SP	3.784000	55.300000	0.021031	5.476288	0.000000
13237SP#1	BVILLE_14_10YRGAGE	13237SP	2.710000	40.500000	0.011706	6.952288	0.000000
13250SP#1	BVILLE_14_10YRGAGE	13250SP	6.333000	65.500000	0.022154	6.490792	0.000000
13253SP#1	BVILLE_14_10YRGAGE	13253SP	0.141000	44.700000	0.004870	5.602568	0.000000
13276NW#1	BVILLE_14_10YRGAGE	13276NW	2.586000	64.800000	0.005325	4.847840	0.000000
13340W#1	BVILLE_14_10YRGAGE	13340W	28.082000	28.100000	0.031153	13.805192	0.000000
13341W#1	BVILLE_14_10YRGAGE	13341W	1.616000	21.100000	0.014347	9.776368	0.000000
13346SP#1	BVILLE_14_10YRGAGE	13346SP	2.915000	45.800000	0.015702	4.426688	0.000000
13347SP#1	BVILLE_14_10YRGAGE	13347SP	1.035000	46.300000	0.006771	4.934760	0.000000
13348SP#1	BVILLE_14_10YRGAGE	13348SP	2.291000	52.200000	0.010079	5.953200	0.000000
13377NW#1	BVILLE_14_10YRGAGE	13377NW	0.899000	51.400000	0.006591	10.542576	0.000000
13476SP#1	BVILLE_14_10YRGAGE	13476SP	4.283000	46.400000	0.017561	5.468416	0.000000
13477SP#1	BVILLE_14_10YRGAGE	13477SP	4.417000	41.100000	0.013890	8.329560	0.000000
13484W#1	BVILLE_14_10YRGAGE	13484W	4.781000	31.600000	0.015336	11.582336	0.000000
13497SP#1	BVILLE_14_10YRGAGE	13497SP	1.704000	71.800000	0.008037	6.169352	0.000000
13509SP#1	BVILLE_14_10YRGAGE	13509SP	0.547000	26.200000	0.006798	10.105680	0.000000
13510SP#1	BVILLE_14_10YRGAGE	13510SP	0.731000	34.100000	0.006680	9.293224	0.000000
13527SP#1	BVILLE_14_10YRGAGE	13527SP	1.085000	23.200000	0.006154	9.663536	0.000000
13531SP#1	BVILLE_14_10YRGAGE	13531SP	4.898000	33.400000	0.021808	11.884752	0.000000
13588W#1	BVILLE_14_10YRGAGE	13588W	1.118000	82.000000	0.008955	4.428328	0.000000
13589W#1	BVILLE_14_10YRGAGE	13589W	11.910000	80.800000	0.022268	5.334592	0.000000
13653W#1	BVILLE_14_10YRGAGE	13653W	0.874000	24.500000	0.003973	12.674576	0.000000
13657W#1	BVILLE_14_10YRGAGE	13657W	6.750000	32.200000	0.029499	11.137568	0.000000
13660W#1	BVILLE_14_10YRGAGE	13660W	10.048000	23.200000	0.036685	10.853848	0.000000
13878W#1	BVILLE_14_10YRGAGE	13878W	16.649000	28.200000	0.044536	9.734712	0.000000
13882W#1	BVILLE_14_10YRGAGE	13882W	4.093000	26.200000	0.021717	11.848344	0.000000
13886W#1	BVILLE_14_10YRGAGE	13886W	5.092000	25.300000	0.019124	12.057608	0.000000
13888W#1	BVILLE_14_10YRGAGE	13888W	3.635000	22.100000	0.013660	9.702240	0.000000
13897SP#1	BVILLE_14_10YRGAGE	13897SP	0.811000	53.500000	0.012149	6.173616	0.000000
13911W#1	BVILLE_14_10YRGAGE	13911W	0.564000	6.700000	0.004594	8.471912	0.000000
13912W#1	BVILLE_14_10YRGAGE	13912W	4.632000	16.500000	0.020134	13.287280	0.000000
13914W#1	BVILLE_14_10YRGAGE	13914W	6.133000	12.500000	0.028950	11.222848	0.000000
13953W#1	BVILLE_14_10YRGAGE	13953W	3.126000	82.500000	0.016875	5.504496	0.000000
13955W#1	BVILLE_14_10YRGAGE	13955W	0.424000	55.800000	0.003447	2.809648	0.000000
13959W#1	BVILLE_14_10YRGAGE	13959W	1.218000	55.500000	0.008357	3.979952	0.000000
13962W#1	BVILLE_14_10YRGAGE	13962W	0.339000	47.900000	0.005562	3.450560	0.000000
13963W#1	BVILLE_14_10YRGAGE	13963W	0.220000	28.100000	0.005660	2.922152	0.000000
13965W#1	BVILLE_14_10YRGAGE	13965W	0.521000	71.400000	0.006057	3.362656	0.000000
13968W#1	BVILLE_14_10YRGAGE	13968W	1.127000	79.700000	0.008220	2.599072	0.000000
14003NW#1	BVILLE_14_10YRGAGE	14003NW	43.242000	75.000000	0.004132	4.245304	0.000000
14005NW#1	BVILLE_14_10YRGAGE	14005NW	5.060000	46.800000	0.004041	7.956952	0.000000
14034SP#1	BVILLE_14_10YRGAGE	14034SP	0.812000	85.800000	0.005026	3.738216	0.000000
14037SP#1	BVILLE_14_10YRGAGE	14037SP	1.367000	55.500000	0.010102	14.832816	0.000000
14039SP#1	BVILLE_14_10YRGAGE	14039SP	1.257000	98.800000	0.005439	3.382664	0.000000
14043SP#1	BVILLE_14_10YRGAGE	14043SP	0.047000	25.700000	0.001665	7.559088	0.000000
14050W#1	BVILLE_14_10YRGAGE	14050W	0.845000	97.500000	0.005600	21.917288	0.000000
14052W#1	BVILLE_14_10YRGAGE	14052W	0.420000	99.800000	0.003349	11.250728	0.000000
14054W#1	BVILLE_14_10YRGAGE	14054W	0.755000	84.500000	0.011461	8.085200	0.000000
14055W#1	BVILLE_14_10YRGAGE	14055W	0.035000	60.200000	0.000698	6.906040	0.000000
14056W#1	BVILLE_14_10YRGAGE	14056W	0.050000	59.500000	0.001921	4.858992	0.000000
14057W#1	BVILLE_14_10YRGAGE	14057W	0.727000	87.800000	0.005395	11.091976	0.000000
14058W#1	BVILLE_14_10YRGAGE	14058W	4.363000	33.400000	0.011638	15.564912	0.000000
14066W#1	BVILLE_14_10YRGAGE	14066W	12.217000	31.200000	0.030350	9.927576	0.000000
14068NW#1	BVILLE_14_10YRGAGE	14068NW	1.112000	40.700000	0.013543	3.698200	0.000000
14071NW#1	BVILLE_14_10YRGAGE	14071NW	0.338000	49.000000	0.037270	2.700752	0.000000
14074NW#1	BVILLE_14_10YRGAGE	14074NW	1.503000	73.200000	0.011614	5.865296	0.000000
14136SP#1	BVILLE_14_10YRGAGE	14136SP	4.322000	17.400000	0.008516	14.093504	0.000000
14141SP#1	BVILLE_14_10YRGAGE	14141SP	4.426000	87.300000	0.012579	5.189616	0.000000
14149SP#1	BVILLE_14_10YRGAGE	14149SP	1.383000	75.300000	0.011850	9.993504	0.000000
14202W#1	BVILLE_14_10YRGAGE	14202W	2.542000	45.000000	0.010099	21.158296	0.000000
14208SP#1	BVILLE_14_10YRGAGE	14208SP	1.590000	28.400000	0.012374	13.342384	0.000000
14213SP#1	BVILLE_14_10YRGAGE	14213SP	2.680000	40.200000	0.014485	9.333896	0.000000
14219SP#1	BVILLE_14_10YRGAGE	14219SP	0.997000	67.000000	0.005324	10.983408	0.000000
14312W#1	BVILLE_14_10YRGAGE	14312W	0.776000	56.000000	0.008453	10.671480	0.000000
14313W#1	BVILLE_14_10YRGAGE	14313W	0.283000	80.200000	0.007385	2.887384	0.000000
14314W#1	BVILLE_14_10YRGAGE	14314W	0.305000	84.600000	0.007392	2.939536	0.000000
14315W#1	BVILLE_14_10YRGAGE	14315W	0.074000	82.400000	0.007407	2.891648	0.000000
14316W#1	BVILLE_14_10YRGAGE	14316W	0.265000	74.400000	0.007397	3.392504	0.000000
14317W#1	BVILLE_14_10YRGAGE	14317W	1.284000	65.000000	0.007463	3.785776	0.000000
14320W#1	BVILLE_14_10YRGAGE	14320W	0.547000	91.600000	0.004542	4.069168	0.000000
14322W#1	BVILLE_14_10YRGAGE	14322W	0.226000	66.900000	0.003725	8.459448	0.000000
14324W#1	BVILLE_14_10YRGAGE	14324W	0.574000	85.300000	0.006633	3.964536	0.000000
14644SP#1	BVILLE_14_10YRGAGE	14644SP	1.267000	93.000000	0.008171	4.965592	0.000000
14645SP#1	BVILLE_14_10YRGAGE	14645SP	0.287000	78.600000	0.003188	5.763288	0.000000
14653SP#1	BVILLE_14_10YRGAGE	14653SP	0.911000	78.900000	0.004338	4.940664	0.000000
14654SP#1	BVILLE_14_10YRGAGE	14654SP	2.211000	89.300000	0.007758	4.362072	0.000000