[TITLE]
Scenario Run :  BASE

[OPTIONS]
;Option and Files Scenario Set: SNYDEROPTIONS
FLOW_UNITS	LPS
INFILTRATION	HORTON
FLOW_ROUTING	DYNWAVE
ALLOW_PONDING	NO
DRY_DAYS	7.000000
SKIP_STEADY_STATE 	NO
IGNORE_RAINFALL	NO
IGNORE_SNOWMELT	YES
IGNORE_GROUNDWATER	YES
IGNORE_QUALITY	YES
FORCE_MAIN_EQUATION	H-W
LINK_OFFSETS	DEPTH
MIN_SLOPE	0.000000
SYS_FLOW_TOL	5
LAT_FLOW_TOL	5
START_DATE	07/15/1977
START_TIME	00:00
END_DATE	07/15/1977
END_TIME	06:00
REPORT_START_DATE	07/15/1977
REPORT_START_TIME	00:00
SWEEP_START	01/01
SWEEP_END	12/31
WET_STEP	00:05:00
DRY_STEP	00:05:00
ROUTING_STEP	10
REPORT_STEP	00:05:00
INERTIAL_DAMPING	NONE
VARIABLE_STEP	0.750000
MINIMUM_STEP	0.000000
LENGTHENING_STEP	1
MIN_SURFAREA	12.566000
NORMAL_FLOW_LIMITED	BOTH
MAX_TRIALS	4
HEAD_TOLERANCE	0.005000

[FILES]

[RAINGAGES]
GAGE1	INTENSITY	1.000000	1.000000	TIMESERIES	CONSTANTRAIN		
GAGE500YEAR	INTENSITY	1.000000	1.000000	TIMESERIES	500YEAR		

[HYDROGRAPHS]
; 
2050RTK	GAGE1
2050RTK	ALL	Short	0.020000	1.000000	1.000000	1.000000	1.000000	0.000000
2050RTK	ALL	Medium	0.020000	2.000000	2.000000	1.000000	1.000000	0.000000
2050RTK	ALL	Long	0.020000	3.000000	3.000000	1.000000	1.000000	0.000000
; 
BASERTK	GAGE1
BASERTK	ALL	Short	0.010000	1.000000	2.000000	1.000000	1.000000	0.000000
BASERTK	ALL	Medium	0.010000	2.000000	3.000000	1.000000	1.000000	0.000000
BASERTK	ALL	Long	0.010000	3.000000	4.000000	1.000000	1.000000	0.000000

[EVAPORATION]
CONSTANT	0.100000
DRY_ONLY	NO
RECOVERY	EVAPORATION

[TEMPERATURE]
; BASE Run Climatology Settings

[ADJUSTMENTS]
TEMPERATURE	0.000000	0.000000	0.000000	0.000000	0.000000	0.000000	0.000000	0.000000	0.000000	0.000000	0.000000	0.000000
EVAPORATION	0.000000	0.000000	0.000000	0.000000	0.000000	0.000000	0.000000	0.000000	0.000000	0.000000	0.000000	0.000000
RAINFALL	1.000000	1.000000	1.000000	1.000000	1.000000	1.000000	1.000000	1.000000	1.000000	1.000000	1.000000	1.000000
CONDUCTIVITY	1.000000	1.000000	1.000000	1.000000	1.000000	1.000000	1.000000	1.000000	1.000000	1.000000	1.000000	1.000000

[SUBCATCHMENTS]
CA-1	GAGE1	A	0.250000	33.000000	600.000000	2.700000	0.000000
CA-11	GAGE1	C	0.250000	33.000000	600.000000	1.000000	0.000000
CA-7	GAGE1	G	0.250000	33.000000	200.000000	2.700000	0.000000
CA-8	GAGE1	B	0.250000	33.000000	500.000000	1.000000	0.000000
PLOTCA-1	GAGE1	A	0.250000	33.000000	600.000000	2.700000	0.000000
PLOTCA-11	GAGE1	C	0.250000	33.000000	600.000000	1.000000	0.000000
PLOTCA-7	GAGE1	G	0.250000	33.000000	200.000000	2.700000	0.000000
PLOTCA-8	GAGE1	B	0.250000	33.000000	500.000000	1.000000	0.000000

[SUBAREAS]
CA-1	0.015000	0.410000	0.060000	0.200000	25.000000	OUTLET
CA-11	0.015000	0.410000	0.060000	0.200000	25.000000	OUTLET
CA-7	0.015000	0.410000	0.060000	0.200000	25.000000	OUTLET
CA-8	0.015000	0.410000	0.060000	0.200000	25.000000	OUTLET
PLOTCA-1	0.015000	0.410000	0.060000	0.200000	25.000000	OUTLET
PLOTCA-11	0.015000	0.410000	0.060000	0.200000	25.000000	OUTLET
PLOTCA-7	0.015000	0.410000	0.060000	0.200000	25.000000	OUTLET
PLOTCA-8	0.015000	0.410000	0.060000	0.200000	25.000000	OUTLET

[INFILTRATION]
CA-1	0.020000	0.010000	0.100000	0.050000	5.000000
CA-11	0.020000	0.010000	0.100000	0.050000	0.001000
CA-7	0.020000	0.010000	0.100000	0.050000	0.001000
CA-8	0.020000	0.010000	0.100000	0.050000	0.001000

[AQUIFERS]

[GROUNDWATER]

[GWF]

[SNOWPACKS]

[LID_CONTROLS]
LID-102	RB
LID-102	STORAGE	1.000000	0.750000	0.500000	0.000000
LID-102	DRAIN	1.000000	0.500000	1.000000	1.000000


[LID_USAGE]
CA-1	LID-102	1	25.000000	1.000000	0.000000	1.000000	1	"D:\SWMMandSoftware\SWMM5.013_June2018\EPASWMM5.1.013\Swmm5.1.013UpdateTests\SWMM5_NCIMM\CA-1_LID-102.txt"
CA-11	LID-102	1	25.000000	1.000000	0.000000	1.000000	1	"D:\SWMMandSoftware\SWMM5.013_June2018\EPASWMM5.1.013\Swmm5.1.013UpdateTests\SWMM5_NCIMM\CA-11_LID-102.txt"
CA-7	LID-102	1	25.000000	1.000000	0.000000	1.000000	1	"D:\SWMMandSoftware\SWMM5.013_June2018\EPASWMM5.1.013\Swmm5.1.013UpdateTests\SWMM5_NCIMM\CA-7_LID-102.txt"
CA-8	LID-102	1	25.000000	1.000000	0.000000	1.000000	1	"D:\SWMMandSoftware\SWMM5.013_June2018\EPASWMM5.1.013\Swmm5.1.013UpdateTests\SWMM5_NCIMM\CA-8_LID-102.txt"
PLOTCA-1	LID-102	1	25.000000	1.000000	0.000000	1.000000	1	"D:\SWMMandSoftware\SWMM5.013_June2018\EPASWMM5.1.013\Swmm5.1.013UpdateTests\SWMM5_NCIMM\PLOTCA-1_LID-102.txt"
PLOTCA-11	LID-102	1	25.000000	1.000000	0.000000	1.000000	1	"D:\SWMMandSoftware\SWMM5.013_June2018\EPASWMM5.1.013\Swmm5.1.013UpdateTests\SWMM5_NCIMM\PLOTCA-11_LID-102.txt"
PLOTCA-7	LID-102	1	25.000000	1.000000	0.000000	1.000000	1	"D:\SWMMandSoftware\SWMM5.013_June2018\EPASWMM5.1.013\Swmm5.1.013UpdateTests\SWMM5_NCIMM\PLOTCA-7_LID-102.txt"
PLOTCA-8	LID-102	1	25.000000	0.000000	0.000000	0.000000	0

[JUNCTIONS]
A	1.100000	20.000000	0.000000	0.000000	0.000000
B	9.000000	20.000000	0.000000	0.000000	0.000000
C	8.000000	6.000000	0.000000	0.000000	0.000000
; New Junction
E	0.500000	4.000000	0.000000	0.000000	0.000000
G	3.000000	5.000000	0.000000	0.000000	0.000000

[OUTFALLS]
OUTLET	0.000000	FREE	NO

[DIVIDERS]

[STORAGE]

[CONDUITS]
A	A	E	220.000000	0.015000	0.000000	0.000000	0.000000	0.000000
B	G	A	240.000000	0.015000	0.000000	0.000000	0.000000	0.000000
C	B	C	505.000000	0.024000	0.000000	0.000000	0.000000	0.000000
D	C	G	410.000000	0.024000	0.000000	0.000000	0.000000	0.000000
; New Conduit
F	E	OUTLET	220.000000	0.015000	0.000000	0.000000	0.000000	0.000000

[PUMPS]

[ORIFICES]

[WEIRS]

[XSECTIONS]
A	CIRCULAR	0.300000	0.000000	0.000000	0.000000	1	0
B	CIRCULAR	0.300000	0.000000	0.000000	0.000000	1	0
C	CIRCULAR	0.300000	0.000000	0.000000	0.000000	1	0
D	CIRCULAR	0.300000	0.000000	0.000000	0.000000	1	0
F	CIRCULAR	0.300000	0.000000	0.000000	0.000000	1	0

[TRANSECTS]

[LOSSES]
A	0.000000	0.000000	0.000000	NO	0.100000
B	0.000000	0.000000	0.000000	NO	0.100000
C	0.000000	0.000000	0.000000	NO	0.000000
D	0.000000	0.000000	0.000000	NO	0.000000
F	0.000000	0.000000	0.000000	NO	0.100000

[CONTROLS]

[POLLUTANTS]

[LANDUSES]

[COVERAGES]

[BUILDUP]

[WASHOFF]

[TREATMENT]

[INFLOWS]
C	FLOW	""	FLOW  1.0	1.000000	0.000000

[DWF]
A	FLOW	0.031270	""	""	""	""
B	FLOW	0.031270	""	""	""	""
C	FLOW	0.031270	""	""	""	""
G	FLOW	0.031270	""	""	""	""

[RDII]

[LOADINGS]

[CURVES]
; 
10YR_IDF	GENERAL	1.000000	370.020000
10YR_IDF	5.000000	117.830000
10YR_IDF	10.000000	71.980000
10YR_IDF	15.000000	53.950000
10YR_IDF	20.000000	43.970000
10YR_IDF	25.000000	37.520000
10YR_IDF	30.000000	32.960000
10YR_IDF	45.000000	24.710000
10YR_IDF	60.000000	20.140000
10YR_IDF	120.000000	12.300000
10YR_IDF	240.000000	7.510000
10YR_IDF	360.000000	5.630000
; 
2YR_IDF	GENERAL	1.000000	259.590000
2YR_IDF	5.000000	78.810000
2YR_IDF	10.000000	47.170000
2YR_IDF	15.000000	34.930000
2YR_IDF	20.000000	28.230000
2YR_IDF	25.000000	23.930000
2YR_IDF	30.000000	20.900000
2YR_IDF	45.000000	15.480000
2YR_IDF	60.000000	12.510000
2YR_IDF	120.000000	7.490000
2YR_IDF	240.000000	4.480000
2YR_IDF	360.000000	3.320000
; 
CUNETTE	SHAPE	0.000000	0.000000
CUNETTE	0.020000	0.140000
CUNETTE	0.040000	0.195950
CUNETTE	0.060000	0.237500
CUNETTE	0.080000	0.271300
CUNETTE	0.100000	0.300000
CUNETTE	0.120000	0.324950
CUNETTE	0.140000	0.347000
CUNETTE	0.160000	0.366600
CUNETTE	0.180000	0.384200
CUNETTE	0.200000	0.400000
CUNETTE	0.220000	0.414250
CUNETTE	0.240000	0.427100
CUNETTE	0.260000	0.438650
CUNETTE	0.280000	0.449000
CUNETTE	0.300000	0.458250
CUNETTE	0.320000	0.933000
CUNETTE	0.340000	0.947400
CUNETTE	0.360000	0.960000
CUNETTE	0.380000	0.970800
CUNETTE	0.400000	0.979800
CUNETTE	0.420000	0.987100
CUNETTE	0.440000	0.992800
CUNETTE	0.460000	0.996800
CUNETTE	0.480000	0.999200
CUNETTE	0.500000	1.000000
CUNETTE	0.520000	0.999200
CUNETTE	0.540000	0.996800
CUNETTE	0.560000	0.992800
CUNETTE	0.580000	0.987100
CUNETTE	0.600000	0.979800
CUNETTE	0.620000	0.970800
CUNETTE	0.640000	0.960000
CUNETTE	0.660000	0.947400
CUNETTE	0.680000	0.933000
CUNETTE	0.700000	0.916500
CUNETTE	0.720000	0.898000
CUNETTE	0.740000	0.877300
CUNETTE	0.760000	0.854200
CUNETTE	0.780000	0.828500
CUNETTE	0.800000	0.800000
CUNETTE	0.820000	0.768400
CUNETTE	0.840000	0.733200
CUNETTE	0.860000	0.694000
CUNETTE	0.880000	0.649900
CUNETTE	0.900000	0.600000
CUNETTE	0.920000	0.542600
CUNETTE	0.940000	0.475000
CUNETTE	0.960000	0.391900
CUNETTE	0.980000	0.280000
CUNETTE	1.000000	0.000000

[TIMESERIES]
RAINSERIES1	07/15/1977	06:30	0.000000
RAINSERIES1	06:35	0.840000
RAINSERIES1	06:40	0.040000
RAINSERIES1	06:45	0.020000
RAINSERIES1	06:50	0.000000
RAINSERIES1	07:05	0.000000
RAINSERIES1	07:10	0.680000
RAINSERIES1	07:15	0.880000
RAINSERIES1	07/15/1977	07:20	2.020000
RAINSERIES1	07:25	2.130000
RAINSERIES1	07:30	0.630000
RAINSERIES1	07:35	2.330000
RAINSERIES1	07:40	0.310000
RAINSERIES1	07/15/1977	07:45	0.200000
RAINSERIES1	07:50	0.000000
RAINSERIES1	08:00	0.000000
RAINSERIES1	08:05	0.020000
RAINSERIES1	07/15/1977	08:10	0.000000
RAINSERIES1	08:25	0.000000
RAINSERIES1	08:30	0.220000
RAINSERIES1	07/15/1977	08:35	2.390000
RAINSERIES1	08:40	0.400000
RAINSERIES1	08:45	0.860000
RAINSERIES1	08:50	2.790000
RAINSERIES1	08:55	1.380000
RAINSERIES1	07/15/1977	09:00	1.080000
RAINSERIES1	09:05	0.640000
RAINSERIES1	09:10	0.020000
RAINSERIES1	09:15	0.150000
RAINSERIES1	09:20	0.000000

CONSTANTRAIN	0:00	0.000000
CONSTANTRAIN	1:00	0.000000
CONSTANTRAIN	2:00	1.000000
CONSTANTRAIN	3:00	0.000000

10YEAR	0:00	0.000000
10YEAR	1:00	0.000000
10YEAR	2:00	3.500000
10YEAR	3:00	0.000000

25YEAR	0:00	0.000000
25YEAR	1:00	0.000000
25YEAR	2:00	5.000000
25YEAR	3:00	0.000000

50YEAR	0:00	0.000000
50YEAR	1:00	0.000000
50YEAR	2:00	7.000000
50YEAR	3:00	0.000000

100YEAR	0:00	0.000000
100YEAR	1:00	0.000000
100YEAR	2:00	10.000000
100YEAR	3:00	0.000000

500YEAR	0:00	0.000000
500YEAR	1:00	0.000000
500YEAR	2:00	15.000000
500YEAR	3:00	0.000000


[PATTERNS]
; 
EVAPORATION	MONTHLY	5.000000	5.000000	2.000000	2.000000	3.000000
EVAPORATION	3.000000	2.000000	2.000000	2.000000	1.000000
EVAPORATION	1.000000	1.000000
; 
NORMALDAYS	DAILY	1.000000	1.000000	1.000000	0.000000	1.000000
NORMALDAYS	1.000000	1.000000
; 
ODDDATYPATTERN	HOURLY	0.000000	0.000000	0.000000	0.000000	0.000000
ODDDATYPATTERN	0.000000	0.000000	1.000000	1.000000	1.000000
ODDDATYPATTERN	1.000000	1.000000	0.000000	0.000000	0.000000
ODDDATYPATTERN	1.000000	1.000000	1.000000	1.000000	1.000000
ODDDATYPATTERN	0.000000	0.000000	0.000000	0.000000
; 
ONEDAY	DAILY	0.000000	0.000000	0.000000	1.000000	0.000000
ONEDAY	0.000000	0.000000

[REPORT]
;Report Option Set: BASE, Base Simulation Report
INPUT YES
CONTINUITY YES
FLOWSTATS YES
CONTROLS YES
SUBCATCHMENTS  ALL
NODES  ALL
LINKS  ALL

[COORDINATES]
A	95.349954	315.595517
B	295.273047	482.198095
C	448.087826	412.110114
E	71.618206	115.208938
G	210.248283	274.232119
OUTLET	-8.449000	111.653000


[POLYGONS]

CA-1	-83.439514	230.122665
CA-1	-164.792763	280.787088
CA-1	-221.838750	319.832825
CA-1	-295.867368	423.591335
CA-1	-447.951759	363.894658
CA-1	-394.416352	171.821480
CA-1	-162.469407	91.653480

CA-11	708.718000	347.243000
CA-11	612.268918	568.733204
CA-11	497.915458	459.825147
CA-11	399.938246	430.757345
CA-11	695.636363	196.112066

CA-7	631.977540	-125.752203
CA-7	319.125260	24.385333
CA-7	188.732013	103.211468
CA-7	170.543554	77.283532
CA-7	110.644122	-33.958269
CA-7	411.483177	-215.807269

CA-8	460.222845	647.956191
CA-8	693.270515	868.828965
CA-8	463.264767	925.534761
CA-8	339.426968	951.585361
CA-8	194.122767	816.258761
CA-8	390.811250	688.920411

PLOTCA-1	253.332838	426.375185
PLOTCA-1	171.979589	477.039608
PLOTCA-1	114.933602	516.085345
PLOTCA-1	40.904984	619.843855
PLOTCA-1	-111.179407	560.147178
PLOTCA-1	-57.644000	368.074000
PLOTCA-1	174.302945	287.906000

PLOTCA-11	708.718000	347.243000
PLOTCA-11	612.268918	568.733204
PLOTCA-11	497.915458	459.825147
PLOTCA-11	381.228254	347.805431
PLOTCA-11	695.636363	196.112066

PLOTCA-7	1015.859722	3.808033
PLOTCA-7	703.007442	153.945569
PLOTCA-7	572.614195	232.771704
PLOTCA-7	554.425736	206.843768
PLOTCA-7	494.526304	95.601967
PLOTCA-7	795.365359	-86.247033

PLOTCA-8	946.460322	507.187584
PLOTCA-8	1179.507992	728.060358
PLOTCA-8	949.502244	784.766154
PLOTCA-8	798.091244	793.222154
PLOTCA-8	680.360244	675.490154
PLOTCA-8	877.048727	548.151804

[VERTICES]


[SYMBOLS]
GAGE1	242.100000	568.930000
GAGE500YEAR	284.751670	557.000521

[MAP]
DIMENSIONS	-529.324747	-274.176900	1260.880980	1009.954993

