[OPTIONS]
;Option and Files Scenario Set: 2-DAY-SIM, 2 day simulation run
FLOW_UNITS	LPS
INFILTRATION	HORTON
FLOW_ROUTING	DYNWAVE
ALLOW_PONDING	NO
DRY_DAYS	5.000000
SKIP_STEADY_STATE 	NO
IGNORE_RAINFALL	YES
IGNORE_SNOWMELT	YES
IGNORE_GROUNDWATER	YES
IGNORE_QUALITY	YES
FORCE_MAIN_EQUATION	D-W
LINK_OFFSETS	DEPTH
MIN_SLOPE	0.000000
START_DATE	06/09/2010
START_TIME	00:00
END_DATE	06/10/2010
END_TIME	23:00
REPORT_START_DATE	06/10/2010
REPORT_START_TIME	00:00
SWEEP_START	01/01
SWEEP_END	12/31
WET_STEP	01:00:00
DRY_STEP	23:00:00
ROUTING_STEP	1
REPORT_STEP	00:00:01
INERTIAL_DAMPING	NONE
VARIABLE_STEP	0.750000
MINIMUM_STEP	0.000000
LENGTHENING_STEP	1
MIN_SURFAREA	0.000000
NORMAL_FLOW_LIMITED	BOTH
MAX_TRIALS	8
HEAD_TOLERANCE	0.000100

[FILES]

[RAINGAGES]

[HYDROGRAPHS]

[EVAPORATION]
CONSTANT	0.000000
DRY_ONLY	NO

[TEMPERATURE]
; BASE Run Climatology Settings

[ADJUSTMENTS]

[SUBCATCHMENTS]

[SUBAREAS]

[INFILTRATION]

[AQUIFERS]

[GROUNDWATER]

[GWF]

[SNOWPACKS]

[JUNCTIONS]
; Chainage
000.00	8.286000	1.284000	0.000000	100.000000	0.000000
; Chainage of 100mm RM
000.00-2	8.286000	1.284000	0.000000	100.000000	0.000000
; Chainage
179.73	14.500000	1.340000	0.000000	100.000000	0.000000
; Chainage of 100mm RM
179.73-2	14.500000	1.340000	0.000000	100.000000	0.000000
; MQZ1MH19726
18034	26.314633	1.000367	0.000000	100.000000	0.000000
; SPZ1MH24265
18037	2.810000	1.830000	0.000000	100.000000	0.000000
; MQZ1MH20318
18039	29.595000	1.195000	0.000000	100.000000	0.000000
; SPZ12MH8754
18137	0.157164	1.442836	0.000000	0.000000	0.000000
; SPZ8MH8932
18403	0.442723	2.943277	0.000000	0.000000	0.000000
; SPZ8MH9140
18404	0.573993	2.943007	0.000000	0.000000	0.000000
; SPZ8MH9184
18405	0.595677	2.943323	0.000000	0.000000	0.000000
; SPZ8MH9067
18406	0.520189	2.942811	0.000000	0.000000	0.000000
; SPZ8MH10106
19955	2.025000	1.780000	0.000000	0.000000	0.000000
; SPZ8MH10113
19956	2.020000	4.260000	0.000000	0.000000	0.000000
; SPZ8MH10111
19957	2.122000	7.700000	0.000000	0.000000	0.000000
; SPZ8MH10327
19958	2.501750	0.763250	0.000000	0.000000	0.000000
; SPZ8MH10514
19966	2.893380	1.841620	0.000000	0.000000	0.000000
; SPZ8MH10268
19995	2.404884	2.943116	0.000000	0.000000	0.000000
; SPZ8MH10218
19996	2.304327	2.942673	0.000000	0.000000	0.000000
; SPZ8MH10073
20002	1.949817	2.943183	0.000000	0.000000	0.000000
; SPZ8MH10101
20003	2.012719	2.943281	0.000000	0.000000	0.000000
; SPZ8MH10034
20011	1.896262	2.942738	0.000000	0.000000	0.000000
; SPZ8MH10417
20066	2.746653	2.943347	0.000000	0.000000	0.000000
; SPZ8MH10429
20069	2.687665	2.943335	0.000000	0.000000	0.000000
; SPZ8MH10505
20071	2.881091	2.942909	0.000000	0.000000	0.000000
; SPZ8MH10541
20072	2.916035	2.942965	0.000000	0.000000	0.000000
; SPZ15MH11635
20462	6.677636	1.615364	0.000000	0.000000	0.000000
; SPZ15MH11469
20560	5.656463	1.614537	0.000000	0.000000	0.000000
; SPZ15MH11466
20561	5.565123	1.614877	0.000000	0.000000	0.000000
; SPZ15MH11468
20562	5.703851	1.615149	0.000000	0.000000	0.000000
; SPZ9MH12054
22772	8.569567	1.615433	0.000000	0.000000	0.000000
; SPZ9MH11882
22776	7.678118	1.614882	0.000000	0.000000	0.000000
; SPZ15MH11768
22777	7.208782	1.615218	0.000000	0.000000	0.000000
; SPZ8MH9881
23178	1.497540	2.943460	0.000000	0.000000	0.000000
; SPZ8MH9938
23179	1.578867	2.943133	0.000000	0.000000	0.000000
; SPZ12MH8759
23205	-0.232000	2.312000	0.000000	100.000000	0.000000
; SPZ8MH9748
23207	1.359070	2.942930	0.000000	0.000000	0.000000
; SPZ8MH8919
23220	0.421190	2.942810	0.000000	0.000000	0.000000
; SPZ8MH9215
23221	0.665427	2.942573	0.000000	0.000000	0.000000
; SPZ8MH9421
23227	0.867545	2.943455	0.000000	0.000000	0.000000
; SPZ8MH8870
23228	0.383854	2.943146	0.000000	0.000000	0.000000
; SPZ8MH8831
23229	1.258000	1.382000	0.000000	100.000000	0.000000
; SPZ8MH9962
23231	1.712182	2.942818	0.000000	0.000000	0.000000
; SPZ12MH8750
23232	-0.120000	2.140000	0.000000	100.000000	0.000000
; SPZ12MH8751
23233	-0.150000	2.170000	0.000000	100.000000	0.000000
; SPZ8MH8852
23237	0.365000	1.235000	0.000000	0.000000	0.000000
; SPZ8MH8803
23238	2.100000	2.400000	0.000000	0.000000	0.000000
; SPZ8MH8854
23239	1.430000	1.050000	0.000000	0.000000	0.000000
; SPZ8MH8849
23240	1.280000	1.200000	0.000000	0.000000	0.000000
; SPZ8MH9596
23448	1.102780	2.943220	0.000000	0.000000	0.000000
; SPZ8MH9581
23449	1.074226	2.942774	0.000000	0.000000	0.000000
; SPZ8MH9626
23451	1.179389	2.942611	0.000000	0.000000	0.000000
; SPZ8MH9695
23457	1.300360	2.942640	0.000000	0.000000	0.000000
; SPZ8MH9240
23518	0.725089	2.942911	0.000000	0.000000	0.000000
; SPZ8MH9497
23554	0.969174	2.942826	0.000000	0.000000	0.000000
; SPZ15MH10944
24053	3.277000	1.718000	0.000000	0.000000	0.000000
; SPZ15MH10819
24054	3.138792	4.236208	0.000000	0.000000	0.000000
; SPZ15MH10997
24056	2.880085	1.614915	0.000000	0.000000	0.000000
; SPZ15MH10971
24057	2.860000	1.990000	0.000000	0.000000	0.000000
; SPZ15MH10976
24058	2.780000	1.615000	0.000000	0.000000	0.000000
; SPZ9MH10941
24059	2.650000	1.350000	0.000000	0.000000	0.000000
; SPZ9MH10917
24060	2.811814	1.268186	0.000000	0.000000	0.000000
; SPZ15MH10947
24061	3.278000	1.717000	0.000000	0.000000	0.000000
; SPZ9MH10877
24062	3.016354	1.063646	0.000000	0.000000	0.000000
; SPZ15MH11080
24063	3.512475	1.614525	0.000000	0.000000	0.000000
; SPZ8MH10753
24064	3.080316	2.942684	0.000000	0.000000	0.000000
; SPZ9MH10795
24069	3.620000	0.460000	0.000000	0.000000	0.000000
; SPZ15MH11254
24073	4.429896	1.615104	0.000000	0.000000	0.000000
; SPZ8MH10588
24103	2.953385	2.942615	0.000000	0.000000	0.000000
; SPZ8MH10566
24104	2.934348	2.942652	0.000000	0.000000	0.000000
; Chainage
242.37	4.590000	1.470000	0.000000	100.000000	0.000000
; Chainage of 100mm RM
242.37-2	4.940000	1.120000	0.000000	100.000000	0.000000
; SPZ15MH11733
25011	7.095741	1.615259	0.000000	0.000000	0.000000
; SPZ8MH8770
25315	5.400000	1.800000	0.000000	0.000000	0.000000
; SPZ12MH8872
25319	0.206053	1.393947	0.000000	0.000000	0.000000
; SPZ12MH8847
25322	0.276497	1.323503	0.000000	0.000000	0.000000
; SPZ12MH8820
25323	0.328173	1.271827	0.000000	0.000000	0.000000
; SPZ12MH8850
25325	0.249616	1.350384	0.000000	0.000000	0.000000
; SPZ12MH8888
25326	0.228421	1.371579	0.000000	0.000000	0.000000
; SPZ12MH8838
25327	0.190766	1.409234	0.000000	0.000000	0.000000
; SPZ1MH22358
26193	16.440000	1.480000	0.000000	100.000000	0.000000
; MQZ1MH22040
26194	22.230884	1.000116	0.000000	100.000000	0.000000
; MQZ1MH21761
26195	25.160256	0.999744	0.000000	100.000000	0.000000
; MQZ1MH21405
26196	27.261783	0.000217	0.000000	100.000000	0.000000
; SPZ1MH23149
26199	14.173037	0.999963	0.000000	100.000000	0.000000
; SPZ9MH12275
26359	9.520000	1.615000	0.000000	0.000000	0.000000
; SPZ1MH25251
27424	3.325846	3.045154	0.000000	100.000000	0.000000
; MQZ1MH20737
27430	31.740000	2.020000	0.000000	100.000000	0.000000
; MQZ1MH21086
27431	29.400750	1.000250	0.000000	100.000000	0.000000
; SPZ1MH24263
27432	2.836460	10.411540	0.000000	100.000000	0.000000
; SPZ1MH23596
27433	10.398085	3.699915	0.000000	100.000000	0.000000
; SPZ1MH23783
27434	7.906620	5.911380	0.000000	100.000000	0.000000
; SPZ1MH24046
27435	5.329641	8.198359	0.000000	100.000000	0.000000
; SPZ1MH24513
27436	6.600000	1.530000	0.000000	100.000000	0.000000
; SPZ1MH24945
27437	4.976549	4.731451	0.000000	100.000000	0.000000
; SPZ1MH25492
27438	1.324000	1.876000	0.000000	20.000000	0.000000
; New Junction
GS-JCT-152	2.234690	2.943310	0.000000	0.000000	0.000000
; New Junction
GS-JCT-154	2.500000	1.500000	0.000000	0.000000	0.000000
; New Junction
GS-JCT-156	2.569905	2.943095	0.000000	0.000000	0.000000
; New Junction
GS-JCT-184	0.375000	1.245000	0.000000	0.000000	0.000000
; New Junction
GS-JCT-186	7.045000	2.045000	0.000000	0.000000	0.000000
; New Junction
GS-JCT-190	0.360351	1.239649	0.000000	0.000000	0.000000
; New Junction
GS-JCT-216	1.429472	2.942528	0.000000	0.000000	0.000000
; New Junction
GS-JCT-220	1.522867	2.943133	0.000000	0.000000	0.000000
; New Junction
GS-JCT-252	2.450000	1.550000	0.000000	0.000000	0.000000
; New Junction
GS-JCT-254	1.824018	2.942982	0.000000	0.000000	0.000000
; New Junction
GS-JCT-280	2.600000	1.400000	0.000000	0.000000	0.000000
; New Junction
GS-JCT-342	-0.100000	2.120000	0.000000	100.000000	0.000000
; New Junction
GS-JCT-376	0.152000	1.448000	0.000000	0.000000	0.000000
; New Junction
RM-JCT-100	5.317000	1.753000	0.000000	100.000000	0.000000
; New Junction
RM-JCT-102	-0.442000	1.847000	0.000000	100.000000	0.000000
; New Junction
RM-JCT-104	-0.627000	2.392000	0.000000	100.000000	0.000000
; New Junction
RM-JCT-106	-0.694000	2.476000	0.000000	100.000000	0.000000
; New Junction
RM-JCT-108	-0.491000	2.633000	0.000000	100.000000	0.000000
; New Junction
RM-JCT-110	-0.389000	2.492000	0.000000	100.000000	0.000000
; New Junction
RM-JCT-114	-0.749000	2.613000	0.000000	100.000000	0.000000
; New Junction
RM-JCT-116	-0.185000	2.485000	0.000000	100.000000	0.000000
; New Junction
RM-JCT-118	2.695000	2.163000	0.000000	100.000000	0.000000
; New Junction
RM-JCT-120	5.800000	1.500000	0.000000	100.000000	0.000000
; New Junction
RM-JCT-122	2.656000	1.457000	0.000000	100.000000	0.000000
; New Junction
RM-JCT-124	5.330000	1.660000	0.000000	100.000000	0.000000
; New Junction
RM-JCT-126	0.350000	2.180000	0.000000	100.000000	0.000000
; New Junction
RM-JCT-128	0.100000	2.180000	0.000000	100.000000	0.000000
; New Junction
RM-JCT-130	6.730000	1.780000	0.000000	100.000000	0.000000
; New Junction
RM-JCT-132	7.050000	2.350000	0.000000	100.000000	0.000000
; New Junction
RM-JCT-134	7.000000	1.000000	0.000000	100.000000	0.000000
; New Junction
RM-JCT-136	9.090000	1.510000	0.000000	100.000000	0.000000
; New Junction
RM-JCT-138	9.390000	1.230000	0.000000	100.000000	0.000000
; New Junction
RM-JCT-140	8.050000	3.050000	0.000000	100.000000	0.000000
; New Junction
RM-JCT-142	7.650000	2.650000	0.000000	100.000000	0.000000
; New Junction
RM-JCT-144	7.550000	2.370000	0.000000	100.000000	0.000000
; New Junction
RM-JCT-146	7.340000	1.750000	0.000000	100.000000	0.000000
; New Junction
RM-JCT-148	5.230000	1.180000	0.000000	100.000000	0.000000
; New Junction
RM-JCT-150	5.054951	4.136049	0.000000	170.000000	0.000000
; New Junction
RM-JCT-160	-1.300000	1.300000	0.000000	100.000000	0.000000
; New Junction
RM-JCT-166	-0.448000	2.468000	0.000000	100.000000	0.000000
; New Junction
RM-JCT-168	-0.232000	2.312000	0.000000	100.000000	0.000000
; New Junction
RM-JCT-170	-0.232000	2.312000	0.000000	100.000000	0.000000
; New Junction
RM-JCT-172	-0.448000	2.468000	0.000000	100.000000	0.000000
; New Junction
RM-JCT-174	-0.448000	2.468000	0.000000	100.000000	0.000000
; New Junction
RM-JCT-176	-0.486000	2.506000	0.000000	100.000000	0.000000
; New Junction
RM-JCT-18	14.450000	2.100000	0.000000	100.000000	0.000000
; New Junction
RM-JCT-192	43.000000	2.000000	0.000000	10.000000	0.000000
; New Junction
RM-JCT-198	20.300000	1.370000	0.000000	100.000000	0.000000
; New Junction
RM-JCT-20	13.390000	2.290000	0.000000	100.000000	0.000000
; New Junction
RM-JCT-202	15.735011	0.999989	0.000000	100.000000	0.000000
; New Junction
RM-JCT-204	14.934636	1.000364	0.000000	100.000000	0.000000
; New Junction
RM-JCT-208	33.170000	1.200000	0.000000	100.000000	0.000000
; New Junction
RM-JCT-210	43.000000	2.000000	0.000000	10.000000	0.000000
; New Junction
RM-JCT-22	2.905000	0.295000	0.000000	175.000000	0.000000
; New Junction
RM-JCT-226	13.440000	1.810000	0.000000	100.000000	0.000000
; New Junction
RM-JCT-228	14.000000	1.000000	0.000000	100.000000	0.000000
; New Junction
RM-JCT-22_A	2.905000	0.295000	0.000000	175.000000	0.000000
; New Junction
RM-JCT-230	17.250000	2.251000	0.000000	100.000000	0.000000
; New Junction
RM-JCT-236	2.656000	1.457000	0.000000	100.000000	0.000000
; New Junction
RM-JCT-238	2.110000	1.890000	0.000000	100.000000	0.000000
; New Junction
RM-JCT-238_2	2.110000	0.490000	0.000000	100.000000	0.000000
; New Junction
RM-JCT-242	16.850000	0.650000	0.000000	100.000000	0.000000
; New Junction
RM-JCT-246	14.450000	2.100000	0.000000	100.000000	0.000000
; New Junction
RM-JCT-248	13.390000	2.290000	0.000000	100.000000	0.000000
; New Junction
RM-JCT-250	11.870000	2.920000	0.000000	100.000000	0.000000
; New Junction
RM-JCT-258	7.050000	2.350000	0.000000	100.000000	0.000000
; New Junction
RM-JCT-26	43.000000	2.000000	0.000000	100.000000	0.000000
; New Junction
RM-JCT-260	6.730000	1.780000	0.000000	100.000000	0.000000
; New Junction
RM-JCT-262	9.390000	1.230000	0.000000	100.000000	0.000000
; New Junction
RM-JCT-264	9.090000	1.510000	0.000000	100.000000	0.000000
; New Junction
RM-JCT-266	7.000000	1.000000	0.000000	100.000000	0.000000
; New Junction
RM-JCT-268	0.100000	2.180000	0.000000	100.000000	0.000000
; New Junction
RM-JCT-270	0.700000	2.410000	0.000000	100.000000	0.000000
; New Junction
RM-JCT-272	5.330000	1.660000	0.000000	100.000000	0.000000
; New Junction
RM-JCT-274	-1.820000	4.420000	0.000000	100.000000	0.000000
; New Junction
RM-JCT-276	-0.389000	2.492000	0.000000	100.000000	0.000000
; New Junction
RM-JCT-278	-0.694000	2.476000	0.000000	100.000000	0.000000
; New Junction
RM-JCT-28	17.458000	1.652000	0.000000	100.000000	0.000000
; New Junction
RM-JCT-282	-0.627000	2.392000	0.000000	100.000000	0.000000
; New Junction
RM-JCT-284	-0.749000	2.613000	0.000000	100.000000	0.000000
; New Junction
RM-JCT-288	28.760000	1.360000	0.000000	100.000000	0.000000
; New Junction
RM-JCT-290	35.950000	1.850000	0.000000	100.000000	0.000000
; New Junction
RM-JCT-292	23.720000	1.630000	0.000000	100.000000	0.000000
; New Junction
RM-JCT-294	25.680000	2.540000	0.000000	100.000000	0.000000
; New Junction
RM-JCT-296	5.317000	1.753000	0.000000	100.000000	0.000000
; New Junction
RM-JCT-298	-0.442000	1.847000	0.000000	100.000000	0.000000
; New Junction
RM-JCT-30	14.706148	0.999852	0.000000	170.000000	0.000000
; New Junction
RM-JCT-300	-0.565000	2.639000	0.000000	100.000000	0.000000
; New Junction
RM-JCT-302	26.271000	1.628000	0.000000	100.000000	0.000000
; New Junction
RM-JCT-304	33.050000	1.745000	0.000000	100.000000	0.000000
; New Junction
RM-JCT-306	15.794000	2.105000	0.000000	100.000000	0.000000
; New Junction
RM-JCT-308	-0.185000	2.485000	0.000000	100.000000	0.000000
; New Junction
RM-JCT-310	5.800000	1.500000	0.000000	100.000000	0.000000
; New Junction
RM-JCT-312	21.430000	2.450000	0.000000	100.000000	0.000000
; New Junction
RM-JCT-314	22.180000	2.430000	0.000000	100.000000	0.000000
; New Junction
RM-JCT-318	10.510000	2.680000	0.000000	100.000000	0.000000
; New Junction
RM-JCT-32	15.949152	0.999848	0.000000	170.000000	0.000000
; New Junction
RM-JCT-320	1.710000	1.340000	0.000000	100.000000	0.000000
; New Junction
RM-JCT-322	1.280000	1.770000	0.000000	100.000000	0.000000
; New Junction
RM-JCT-324	2.850000	2.260000	0.000000	100.000000	0.000000
; New Junction
RM-JCT-326	0.480000	2.550000	0.000000	100.000000	0.000000
; New Junction
RM-JCT-328	5.230000	2.020000	0.000000	100.000000	0.000000
; New Junction
RM-JCT-334	5.230000	1.180000	0.000000	100.000000	0.000000
; New Junction
RM-JCT-336	3.790000	1.590000	0.000000	100.000000	0.000000
; New Junction
RM-JCT-338	7.340000	1.750000	0.000000	100.000000	0.000000
; New Junction
RM-JCT-34	13.440000	1.810000	0.000000	170.000000	0.000000
; New Junction
RM-JCT-340	7.550000	2.370000	0.000000	100.000000	0.000000
; New Junction
RM-JCT-346	43.000000	2.000000	0.000000	100.000000	0.000000
; New Junction
RM-JCT-348	21.050000	1.822000	0.000000	100.000000	0.000000
; New Junction
RM-JCT-350	17.458000	1.652000	0.000000	100.000000	0.000000
; New Junction
RM-JCT-352	28.000000	1.100000	0.000000	100.000000	0.000000
; New Junction
RM-JCT-356	1.258000	1.382000	0.000000	100.000000	0.000000
; New Junction
RM-JCT-358	7.650000	2.650000	0.000000	100.000000	0.000000
; New Junction
RM-JCT-36	2.810000	1.830000	0.000000	170.000000	0.000000
; New Junction
RM-JCT-360	7.950000	3.290000	0.000000	100.000000	0.000000
; New Junction
RM-JCT-362	8.050000	3.050000	0.000000	100.000000	0.000000
; New Junction
RM-JCT-370	17.458000	1.652000	0.000000	100.000000	0.000000
; New Junction
RM-JCT-378	2.550000	1.450000	0.000000	0.000000	0.000000
; New Junction
RM-JCT-378-3	2.500000	1.500000	0.000000	100.000000	0.000000
; New Junction
RM-JCT-38	6.600000	1.530000	0.000000	170.000000	0.000000
; New Junction
RM-JCT-380	2.550000	1.450000	0.000000	0.000000	0.000000
; Blinking Billy RM Node
RM-JCT-384	4.940000	1.120000	0.000000	100.000000	0.000000
; New Junction
RM-JCT-386	25.250000	1.135000	0.000000	100.000000	0.000000
; New Junction
RM-JCT-388	28.000000	1.100000	0.000000	100.000000	0.000000
; New Junction
RM-JCT-390	21.050000	1.822000	0.000000	100.000000	0.000000
; New Junction
RM-JCT-392	20.300000	1.370000	0.000000	170.000000	0.000000
; SPZ1MH22358
RM-JCT-394	16.440000	1.480000	0.000000	170.000000	0.000000
; New Junction
RM-JCT-40	27.262000	1.000000	0.000000	170.000000	0.000000
; New Junction
RM-JCT-42	23.000000	1.000000	0.000000	170.000000	0.000000
; New Junction
RM-JCT-44	22.231000	1.000000	0.000000	170.000000	0.000000
; New Junction
RM-JCT-48	29.595000	1.195000	0.000000	170.000000	0.000000
; New Junction
RM-JCT-50	29.530000	2.970000	0.000000	170.000000	0.000000
; New Junction
RM-JCT-52	33.170000	1.200000	0.000000	170.000000	0.000000
; New Junction
RM-JCT-54	27.673729	0.996271	0.000000	170.000000	0.000000
; New Junction
RM-JCT-56	22.079142	0.999858	0.000000	170.000000	0.000000
; New Junction
RM-JCT-58	17.458000	1.652000	0.000000	170.000000	0.000000
; New Junction
RM-JCT-60	17.250000	2.251000	0.000000	100.000000	0.000000
; New Junction
RM-JCT-64	25.250000	1.135000	0.000000	100.000000	0.000000
; New Junction
RM-JCT-66	14.000000	1.000000	0.000000	100.000000	0.000000
; New Junction
RM-JCT-68	5.230000	2.020000	0.000000	100.000000	0.000000
; New Junction
RM-JCT-70	2.850000	2.260000	0.000000	100.000000	0.000000
; New Junction
RM-JCT-72	0.480000	2.550000	0.000000	100.000000	0.000000
; New Junction
RM-JCT-74	1.710000	1.340000	0.000000	100.000000	0.000000
; New Junction
RM-JCT-76	1.280000	1.770000	0.000000	100.000000	0.000000
; New Junction
RM-JCT-78	10.510000	2.680000	0.000000	100.000000	0.000000
; New Junction
RM-JCT-80	11.870000	2.920000	0.000000	100.000000	0.000000
; New Junction
RM-JCT-82	16.850000	0.310000	0.000000	100.000000	0.000000
; New Junction
RM-JCT-86	21.430000	2.450000	0.000000	100.000000	0.000000
; New Junction
RM-JCT-88	25.680000	2.540000	0.000000	100.000000	0.000000
; New Junction
RM-JCT-90	28.760000	1.360000	0.000000	100.000000	0.000000
; New Junction
RM-JCT-92	35.950000	1.850000	0.000000	100.000000	0.000000
; New Junction
RM-JCT-94	33.050000	1.745000	0.000000	100.000000	0.000000
; New Junction
RM-JCT-96	26.271000	1.628000	0.000000	100.000000	0.000000
; New Junction
RM-JCT-98	15.794000	2.105000	0.000000	100.000000	0.000000
SELFS-PT-FLOW	-0.500000	4.400000	2.000000	0.000000	0.000000

[OUTFALLS]
; New Junction
OFALL-SANDY-BAY-LONG	-0.349000	FREE	NO
OFALL-SANDY-BAY-SHORT	-1.300000	FREE	NO
; New Junction
SELF-PT-STP-INLET	2.210000	FREE	NO

[DIVIDERS]

[STORAGE]
BLINKING-BILLY-WET-WELL	-1.380000	2.980000	0.400000	TABULAR	BLINKING-BILLY-WET-WELL	0.000000	0.000000
; Header Tank
BOH_1	43.000000	1.700000	0.000000	TABULAR	BOH	0.000000	0.000000
; Header Tank
BOH_2	43.000000	1.700000	0.000000	TABULAR	BOH	0.000000	0.000000
EFFLUENT-WET-WELL	-0.700000	3.900000	2.200000	TABULAR	SELFS-PT-WET-WELL	0.000000	0.000000
SB-PS1-WET-WELL	-2.545000	4.135000	2.080000	TABULAR	SB-PS1-WET-WELL	0.000000	0.000000
SB-PS2-WET-WELL	-0.775000	4.775000	2.050000	TABULAR	SB-PS2-WET-WELL	0.000000	0.000000

[CONDUITS]
; MQZ1SEG45662
87772	RM-JCT-20	RM-JCT-18	67.056336	0.013000	0.000000	0.000000	0.000000	0.000000
; SPZ1SEG45671
87783	RM-JCT-22	RM-JCT-22_A	12.599908	0.013000	0.000000	0.000000	0.000000	0.000000
; SPZ1SEG45671
87783_2	RM-JCT-22_A	RM-JCT-150	324.504547	0.013000	0.000000	0.000000	0.000000	0.000000
; SPZ3SEG45672
87784	RM-JCT-26	RM-JCT-28	190.969914	0.013000	0.000000	0.000000	0.000000	0.000000
; SPZ1SEG45682
87794	RM-JCT-30	RM-JCT-32	325.410105	0.013000	0.000000	0.000000	0.000000	0.000000
; SPZ1SEG45683
87795	RM-JCT-34	RM-JCT-30	331.469121	0.013000	0.000000	0.000000	0.000000	0.000000
; SPZ1SEG45684
87796	RM-JCT-36	RM-JCT-34	331.086353	0.013000	0.000000	0.000000	0.000000	0.000000
; SPZ1SEG45685
87797	RM-JCT-38	RM-JCT-36	146.560282	0.013000	0.000000	0.000000	0.000000	0.000000
; MQZ1SEG45686
87798	RM-JCT-42	RM-JCT-40	210.909948	0.013000	0.000000	0.000000	0.000000	0.000000
; MQZ1SEG45687
87799	RM-JCT-44	RM-JCT-42	82.442403	0.013000	0.000000	0.000000	0.000000	0.000000
; MQZ1SEG45688
87800	RM-JCT-40	RM-JCT-50	176.205248	0.013000	0.000000	0.000000	0.000000	0.000000
; MQZ1SEG45689
87801	RM-JCT-50	RM-JCT-48	261.178565	0.013000	0.000000	0.000000	0.000000	0.000000
; MQZ1SEG45690
87802	RM-JCT-48	RM-JCT-52	205.822575	0.013000	0.000000	0.000000	0.000000	0.000000
; MQZ1SEG45691
87803	RM-JCT-52	RM-JCT-54	132.849679	0.013000	0.000000	0.000000	0.000000	0.000000
; MQZ3SEG45692
87804	RM-JCT-54	RM-JCT-56	135.226068	0.013000	0.000000	0.000000	0.000000	0.000000
; SPZ3SEG45694
87805	RM-JCT-56	RM-JCT-58	111.697055	0.013000	0.000000	0.000000	0.000000	0.000000
; MQZ3SEG45695
87806	RM-JCT-28	RM-JCT-390	118.352914	0.013000	0.000000	0.000000	0.000000	0.000000
; MQZ3SEG45695
87806-3	RM-JCT-388	RM-JCT-60	61.443627	0.013000	0.000000	0.000000	0.000000	0.000000
; MQZ3SEG45695
87806-4	RM-JCT-390	RM-JCT-388	161.301271	0.013000	0.000000	0.000000	0.000000	0.000000
; MQZ1SEG45697
87807	RM-JCT-60	RM-JCT-64	98.985897	0.013000	0.000000	0.000000	0.000000	0.000000
; MQZ1SEG45698
87808	RM-JCT-64	RM-JCT-66	252.011337	0.013000	0.000000	0.000000	0.000000	0.000000
; MQZ1SEG45699
87809	RM-JCT-66	RM-JCT-68	188.527755	0.013000	0.000000	0.000000	0.000000	0.000000
; MQZ1SEG45700
87810	RM-JCT-70	RM-JCT-72	86.738371	0.013000	0.000000	0.000000	0.000000	0.000000
; MQZ1SEG45701
87811	RM-JCT-68	RM-JCT-70	72.125059	0.013000	0.000000	0.000000	0.000000	0.000000
; MQZ1SEG45702
87812	RM-JCT-72	RM-JCT-74	297.656407	0.013000	0.000000	0.000000	0.000000	0.000000
; MQZ1SEG45704
87813	RM-JCT-74	RM-JCT-76	109.288557	0.013000	0.000000	0.000000	0.000000	0.000000
; MQZ1SEG45705
87814	RM-JCT-76	RM-JCT-78	226.000649	0.013000	0.000000	0.000000	0.000000	0.000000
; MQZ1SEG45706
87815	RM-JCT-78	RM-JCT-80	129.909388	0.013000	0.000000	0.000000	0.000000	0.000000
; MQZ1SEG45707
87816	RM-JCT-80	RM-JCT-20	79.756036	0.013000	0.000000	0.000000	0.000000	0.000000
; MQZ1SEG45708
87817	RM-JCT-18	RM-JCT-82	162.952149	0.013000	0.000000	0.000000	0.000000	0.000000
; MQZ1SEG45709
87818	RM-JCT-82	RM-JCT-86	160.664504	0.013000	0.000000	0.000000	0.000000	0.000000
; MQZ1SEG45710
87819	RM-JCT-86	RM-JCT-88	222.688174	0.013000	0.000000	0.000000	0.000000	0.000000
; MQZ14SEG45711
87820	RM-JCT-88	RM-JCT-90	98.709393	0.013000	0.000000	0.000000	0.000000	0.000000
; MQZ14SEG45713
87821	RM-JCT-90	RM-JCT-92	45.995334	0.013000	0.000000	0.000000	0.000000	0.000000
; MQZ14SEG45714
87822	RM-JCT-92	RM-JCT-94	143.086442	0.013000	0.000000	0.000000	0.000000	0.000000
; MQZ7SEG45715
87823	RM-JCT-94	RM-JCT-96	117.825217	0.013000	0.000000	0.000000	0.000000	0.000000
; MQZ7SEG45717
87824	RM-JCT-96	RM-JCT-98	71.303548	0.013000	0.000000	0.000000	0.000000	0.000000
; MQZ7SEG45718
87825	RM-JCT-98	RM-JCT-100	89.863388	0.013000	0.000000	0.000000	0.000000	0.000000
; MQZ5SEG45719
87826	RM-JCT-100	RM-JCT-102	103.699602	0.013000	0.000000	0.000000	0.000000	0.000000
; SPZ5SEG45721
87827	RM-JCT-102	RM-JCT-104	150.997736	0.013000	0.000000	0.000000	0.000000	0.000000
; SPZ5SEG45722
87828	RM-JCT-106	RM-JCT-108	96.404373	0.013000	0.000000	0.000000	0.000000	0.000000
; SPZ5SEG45723
87829	RM-JCT-108	RM-JCT-110	98.838445	0.013000	0.000000	0.000000	0.000000	0.000000
; SPZ5SEG45724
87830	RM-JCT-104	RM-JCT-114	101.708993	0.013000	0.000000	0.000000	0.000000	0.000000
; SPZ5SEG45725
87831	RM-JCT-114	RM-JCT-106	50.694992	0.013000	0.000000	0.000000	0.000000	0.000000
; SPZ5SEG45726
87832	RM-JCT-110	RM-JCT-116	66.166654	0.013000	0.000000	0.000000	0.000000	0.000000
; SPZ15SEG45728
87833	RM-JCT-116	RM-JCT-118	118.721498	0.013000	0.000000	0.000000	0.000000	0.000000
; SPZ15SEG45729
87834	RM-JCT-118	RM-JCT-120	139.541812	0.013000	0.000000	0.000000	0.000000	0.000000
; SPZ15SEG45730
87835	RM-JCT-120	RM-JCT-122	143.477978	0.013000	0.000000	0.000000	0.000000	0.000000
; SPZ15SEG45731
87836	RM-JCT-122	RM-JCT-274	46.536975	0.013000	0.000000	0.000000	0.000000	0.000000
; SPZ15SEG45731
87836-2	RM-JCT-274	RM-JCT-124	131.550755	0.013000	0.000000	0.000000	0.000000	0.000000
; SPZ8SEG45732
87837	RM-JCT-124	RM-JCT-126	212.944979	0.013000	0.000000	0.000000	0.000000	0.000000
; SPZ8SEG45734
87838	RM-JCT-126	RM-JCT-128	45.813624	0.013000	0.000000	0.000000	0.000000	0.000000
; SPZ8SEG45735
87839	RM-JCT-128	RM-JCT-130	223.313660	0.013000	0.000000	0.000000	0.000000	0.000000
; SPZ8SEG45736
87840	RM-JCT-130	RM-JCT-132	189.819630	0.013000	0.000000	0.000000	0.000000	0.000000
; SPZ8SEG45737
87841	RM-JCT-132	RM-JCT-134	113.312152	0.013000	0.000000	0.000000	0.000000	0.000000
; SPZ8SEG45738
87842	RM-JCT-134	RM-JCT-136	176.876894	0.013000	0.000000	0.000000	0.000000	0.000000
; SPZ8SEG45739
87843	RM-JCT-136	RM-JCT-138	178.342883	0.013000	0.000000	0.000000	0.000000	0.000000
; SPZ8SEG45740
87844	RM-JCT-138	RM-JCT-140	183.162314	0.013000	0.000000	0.000000	0.000000	0.000000
; SPZ8SEG45741
87845	RM-JCT-140	RM-JCT-142	193.721511	0.013000	0.000000	0.000000	0.000000	0.000000
; SPZ8SEG45742
87846	RM-JCT-142	RM-JCT-144	104.548751	0.013000	0.000000	0.000000	0.000000	0.000000
; SPZ8SEG45743
87847	RM-JCT-144	RM-JCT-146	77.375315	0.013000	0.000000	0.000000	0.000000	0.000000
; SPZ8SEG45744
87848	RM-JCT-146	RM-JCT-148	179.246348	0.013000	0.000000	0.000000	0.000000	0.000000
; SPZ8SEG45745
87849	RM-JCT-148	000.00	299.563220	0.013000	0.000000	0.000000	0.000000	0.000000
; SPZ8SEG45745
87849-2	242.37	23205	64.240108	0.013000	0.000000	0.000000	0.000000	0.000000
; SPZ8SEG45745
87849-3	000.00	179.73	181.351361	0.013000	0.000000	0.000000	0.000000	0.000000
; SPZ1SEG45747
87850	RM-JCT-32	RM-JCT-394	128.500809	0.013000	0.000000	0.000000	0.000000	0.000000
; SPZ1SEG45747
87850-2	RM-JCT-392	RM-JCT-44	127.381871	0.013000	0.000000	0.000000	0.000000	0.000000
; SPZ1SEG45747
87850-3	RM-JCT-394	RM-JCT-392	37.872778	0.013000	0.000000	0.000000	0.000000	0.000000
; SPZ1SEG45750
87852	RM-JCT-150	RM-JCT-38	259.112791	0.013000	0.000000	0.000000	0.000000	0.000000
; SPZ8SEG45745
8787493-3	179.73	242.37	62.231330	0.013000	0.000000	0.000000	0.000000	0.000000
; SPZ8SEG45981
88084	18405	18404	19.541127	0.013000	0.000000	0.000000	0.000000	0.000000
; SPZ15SEG46692
88794	24058	24057	0.999636	0.012000	0.080000	-0.080000	0.000000	0.000000
; SPZ15SEG46693
88795	24056	24058	11.011278	0.012000	0.000000	0.000000	0.000000	0.000000
; SPZ15SEG46694
88796	20560	20561	10.049176	0.013000	0.000000	0.000000	0.000000	0.000000
; SPZ15SEG46695
88797	20562	20560	5.213636	0.013000	0.000000	0.000000	0.000000	0.000000
; SPZ15SEG46696
88798	24063	24056	69.575403	0.013000	0.000000	0.000000	0.000000	0.000000
; SPZ15SEG46697
88799	24073	24063	100.934421	0.013000	0.000000	0.000000	0.000000	0.000000
; SPZ9SEG46698
88800	22776	22777	51.636313	0.013000	0.000000	0.000000	0.000000	0.000000
; SPZ15SEG46700
88801	22777	25011	12.436662	0.013000	0.000000	0.000000	0.000000	0.000000
; SPZ9SEG47262
89358	26359	22772	104.566470	0.013000	0.000000	0.000000	0.000000	0.000000
; SPZ9SEG49088
91183	24062	24060	17.198700	0.010000	0.000000	0.000000	0.000000	0.000000
; SPZ9SEG49089
91184	24060	24053	10.496449	0.010000	0.000186	0.000000	0.000000	0.000000
; SPZ8SEG49258
91351	19956	19955	18.377140	0.012000	0.000000	-0.000000	0.000000	0.000000
; SPZ8SEG49259
91352	20002	20011	48.260360	0.012000	0.000000	0.000000	0.000000	0.000000
; SPZ8SEG49260
91353	20003	20002	56.684734	0.012000	0.000000	0.000000	0.000000	0.000000
; SPZ8SEG49261
91354	19955	20003	11.066842	0.012000	-0.000000	0.000281	0.000000	0.000000
; SPZ8SEG49263
91356	19957	19956	48.944344	0.012000	0.000000	0.000000	0.000000	0.000000
; SPZ8SEG49264
91357	GS-JCT-152	19957	85.385474	0.012000	0.000000	0.000000	0.000000	0.000000
; SPZ8SEG49265
91358	19996	GS-JCT-152	52.764152	0.012000	0.000000	0.000000	0.000000	0.000000
; SPZ9SEG49347
91440	24060	24059	13.606103	0.010000	0.000000	0.000000	0.000000	0.000000
; SPZ9SEG49348
91441	24059	GS-JCT-154	1.799482	0.010000	0.000000	0.000000	0.000000	0.000000
91441-2	GS-JCT-154	GS-JCT-252	1.501306	0.010000	0.000000	0.000000	0.000000	0.000000
; SPZ15SEG49370
91463	24057	24061	17.294310	0.012000	0.418000	0.000000	0.000000	0.000000
; SPZ15SEG49371
91464	24061	24053	2.199241	0.012000	0.000000	0.000000	0.000000	0.000000
; SPZ8SEG49372
91465	24103	24104	14.424605	0.013000	0.000000	0.000000	0.000000	0.000000
; SPZ8SEG49373
91466	GS-JCT-156	19958	51.641161	0.013000	0.000000	0.000000	0.000000	0.000000
; SPZ8SEG49374
91467	19966	20071	9.311347	0.013000	0.000000	0.000000	0.000000	0.000000
; SPZ8SEG49375
91468	20072	19966	17.165813	0.013000	0.000000	0.000000	0.000000	0.000000
; SPZ8SEG49376
91469	24104	20072	13.875890	0.013000	0.000000	0.000000	0.000000	0.000000
; SPZ8SEG49377
91470	19958	19995	73.395503	0.013000	0.000000	0.000000	0.000000	0.000000
; SPZ12SEG50192
92325	23233	RM-JCT-166	3.480888	0.013000	0.000000	0.000000	0.000000	0.000000
92325-2	RM-JCT-166	RM-JCT-160	29.404625	0.013000	0.000000	0.000000	0.000000	0.000000
92330-2	23205	RM-JCT-168	0.507448	0.013000	0.000000	0.000000	0.000000	0.000000
; SPZ12SEG50199
92332	RM-JCT-170	RM-JCT-172	1.697478	0.013000	0.000000	0.000000	0.000000	0.000000
; SPZ12SEG50200
92333	RM-JCT-174	RM-JCT-176	6.814729	0.013000	0.000000	0.000000	0.000000	0.000000
; SPZ8SEG50213
92346	23239	23240	5.894718	0.012000	-0.150000	1.280000	0.000000	0.000000
; SPZ8SEG50214
92347	23240	GS-JCT-184	1.972837	0.010000	0.000000	0.825000	0.000000	0.000000
; SPZ8SEG50215
92348	23238	23240	19.874145	0.010000	0.000000	0.000000	0.000000	0.000000
; SPZ8SEG50296
92430	GS-JCT-186	25315	12.327529	0.012000	0.000000	0.000000	0.000000	0.000000
; SPZ8SEG50297
92431	25315	23238	13.236779	0.010000	0.000000	2.100000	0.000000	0.000000
; SPZ12SEG50302
92436	25322	25325	32.841169	0.013000	0.000000	0.000000	0.000000	0.000000
; SPZ12SEG50303
92437	25326	25319	27.326675	0.013000	0.000000	0.000000	0.000000	0.000000
; SPZ12SEG50304