[TITLE]
Scenario Run :  BASE

[OPTIONS]
;Option and Files Scenario Set: BASE, Base Simulation Options
FLOW_UNITS	LPS
INFILTRATION	HORTON
FLOW_ROUTING	DYNWAVE
ALLOW_PONDING	NO
DRY_DAYS	0.000000
SKIP_STEADY_STATE 	NO
IGNORE_RAINFALL	NO
IGNORE_SNOWMELT	NO
IGNORE_GROUNDWATER	NO
IGNORE_QUALITY	NO
FORCE_MAIN_EQUATION	H-W
LINK_OFFSETS	DEPTH
MIN_SLOPE	0.000000
START_DATE	02/18/2013
START_TIME	00:00
END_DATE	02/18/2013
END_TIME	03:00
REPORT_START_DATE	02/18/2013
REPORT_START_TIME	00:00
SWEEP_START	01/01
SWEEP_END	12/31
WET_STEP	00:05:00
DRY_STEP	01:00:00
ROUTING_STEP	1
REPORT_STEP	00:00:10
INERTIAL_DAMPING	NONE
VARIABLE_STEP	0.500000
MINIMUM_STEP	0.5
LENGTHENING_STEP	10
MIN_SURFAREA	1.000000
NORMAL_FLOW_LIMITED	SLOPE
MAX_TRIALS	8
HEAD_TOLERANCE	0.000010

[FILES]
SAVE OUTFLOWS	"C:\Users\Robert E Dickinson\Desktop\fileOne.TXT"

[RAINGAGES]

[HYDROGRAPHS]

[EVAPORATION]
CONSTANT	0.000000
DRY_ONLY	NO

[TEMPERATURE]
; BASE Run Climatology Settings

[ADJUSTMENTS]

[SUBCATCHMENTS]

[SUBAREAS]

[INFILTRATION]

[AQUIFERS]

[GROUNDWATER]

[GWF]

[SNOWPACKS]

[JUNCTIONS]
A	284.645077	10.000000	0.000000	0.000000	100.000000
B	285.072686	10.000000	0.000000	0.000000	100.000000
C	285.500937	10.000000	0.000000	0.000000	100.000000
D	285.929832	10.000000	0.000000	0.000000	100.000000
E	286.359371	10.000000	0.000000	0.000000	100.000000
F	287.220300	10.000000	0.000000	0.000000	100.000000
G	287.220386	10.000000	0.000000	0.000000	100.000000
H	287.651864	10.000000	0.000000	0.000000	100.000000
I	288.083990	10.000000	0.000000	0.000000	100.000000
J	288.950190	10.000000	0.000000	0.000000	100.000000
K	288.950190	10.000000	0.000000	0.000000	100.000000
L	289.384267	10.000000	0.000000	0.000000	100.000000
M	289.818995	10.000000	0.000000	0.000000	100.000000
N	290.254377	10.000000	0.000000	0.000000	100.000000
O	290.690412	10.000000	0.000000	0.000000	100.000000
P	291.127103	10.000000	0.000000	0.000000	100.000000
Q	291.564450	10.000000	0.000000	0.000000	100.000000
R	292.002453	10.000000	0.000000	0.000000	100.000000
S	292.441115	10.000000	0.000000	0.000000	100.000000
T	292.441120	10.000000	0.000000	0.000000	100.000000

[OUTFALLS]
OUTFALL	282.244800	FREE	NO

[DIVIDERS]

[STORAGE]

[CONDUITS]
1	A	OUTFALL	100.000000	0.012000	0.000000	0.000000	0.000000	0.000000
10	J	I	100.000000	0.012000	0.000000	0.000000	0.000000	0.000000
11	K	J	100.000000	0.012000	0.000000	0.000000	0.000000	0.000000
12	L	K	100.000000	0.012000	0.000000	0.000000	0.000000	0.000000
13	M	L	100.000000	0.012000	0.000000	0.000000	0.000000	0.000000
14	N	M	100.000000	0.012000	0.000000	0.000000	0.000000	0.000000
15	O	N	100.000000	0.012000	0.000000	0.000000	0.000000	0.000000
16	P	O	100.000000	0.012000	0.000000	0.000000	0.000000	0.000000
17	Q	P	100.000000	0.012000	0.000000	0.000000	0.000000	0.000000
18	R	Q	100.000000	0.012000	0.000000	0.000000	0.000000	0.000000
19	S	R	100.000000	0.012000	0.000000	0.000000	0.000000	0.000000
2	B	A	100.000000	0.012000	0.000000	0.000000	0.000000	0.000000
3	C	B	100.000000	0.012000	0.000000	0.000000	0.000000	0.000000
4	D	C	100.000000	0.012000	0.000000	0.000000	0.000000	0.000000
5	E	D	100.000000	0.012000	0.000000	0.000000	0.000000	0.000000
6	F	E	100.000000	0.012000	0.000000	0.000000	0.000000	0.000000
7	G	F	100.000000	0.012000	0.000000	0.000000	0.000000	0.000000
8	H	G	100.000000	0.012000	0.000000	0.000000	0.000000	0.000000
9	I	H	100.000000	0.012000	0.000000	0.000000	0.000000	0.000000

[PUMPS]
20	T	S	*	ON	0.000000	0.000000

[ORIFICES]

[WEIRS]

[XSECTIONS]
1	CIRCULAR	2.000000	0.000000	0.000000	0.000000	1	0
10	CIRCULAR	2.000000	0.000000	0.000000	0.000000	1	0
11	CIRCULAR	2.000000	0.000000	0.000000	0.000000	1	0
12	CIRCULAR	2.000000	0.000000	0.000000	0.000000	1	0
13	CIRCULAR	1.000000	0.000000	0.000000	0.000000	1	0
14	CIRCULAR	1.000000	0.000000	0.000000	0.000000	1	0
15	CIRCULAR	2.000000	0.000000	0.000000	0.000000	1	0
16	CIRCULAR	2.000000	0.000000	0.000000	0.000000	1	0
17	CIRCULAR	2.000000	0.000000	0.000000	0.000000	1	0
18	CIRCULAR	2.000000	0.000000	0.000000	0.000000	1	0
19	CIRCULAR	2.000000	0.000000	0.000000	0.000000	1	0
2	CIRCULAR	2.000000	0.000000	0.000000	0.000000	1	0
3	CIRCULAR	2.000000	0.000000	0.000000	0.000000	1	0
4	CIRCULAR	2.000000	0.000000	0.000000	0.000000	1	0
5	CIRCULAR	2.000000	0.000000	0.000000	0.000000	1	0
6	CIRCULAR	2.000000	0.000000	0.000000	0.000000	1	0
7	CIRCULAR	2.000000	0.000000	0.000000	0.000000	1	0
8	CIRCULAR	2.000000	0.000000	0.000000	0.000000	1	0
9	CIRCULAR	2.000000	0.000000	0.000000	0.000000	1	0

[TRANSECTS]

[LOSSES]
1	0.000000	0.000000	0.000000	NO	0.000000
10	0.000000	0.000000	0.000000	NO	0.000000
11	0.000000	0.000000	0.000000	NO	0.000000
12	0.000000	0.000000	0.000000	NO	0.000000
13	0.000000	0.000000	0.000000	NO	0.000000
14	0.000000	0.000000	0.000000	NO	0.000000
15	0.000000	0.000000	0.000000	NO	0.000000
16	0.000000	0.000000	0.000000	NO	0.000000
17	0.000000	0.000000	0.000000	NO	0.000000
18	0.000000	0.000000	0.000000	NO	0.000000
19	0.000000	0.000000	0.000000	NO	0.000000
2	0.000000	0.000000	0.000000	NO	0.000000
3	0.000000	0.000000	0.000000	NO	0.000000
4	0.000000	0.000000	0.000000	NO	0.000000
5	0.000000	0.000000	0.000000	NO	0.000000
6	0.000000	0.000000	0.000000	NO	0.000000
7	0.000000	0.000000	0.000000	NO	0.000000
8	0.000000	0.000000	0.000000	NO	0.000000
9	0.000000	0.000000	0.000000	NO	0.000000

[CONTROLS]

[POLLUTANTS]

[LANDUSES]

[COVERAGES]

[BUILDUP]

[WASHOFF]

[TREATMENT]

[INFLOWS]
A	FLOW	""	FLOW  1.0	0.010000	500.000000
B	FLOW	""	FLOW  1.0	0.010000	500.000000
C	FLOW	""	FLOW  1.0	0.010000	500.000000
D	FLOW	""	FLOW  1.0	0.010000	500.000000
E	FLOW	""	FLOW  1.0	0.010000	500.000000
F	FLOW	""	FLOW  1.0	0.010000	500.000000
G	FLOW	""	FLOW  1.0	0.010000	500.000000
H	FLOW	""	FLOW  1.0	0.010000	500.000000
I	FLOW	""	FLOW  1.0	0.010000	500.000000
J	FLOW	""	FLOW  1.0	0.010000	500.000000
K	FLOW	""	FLOW  1.0	0.010000	500.000000
L	FLOW	""	FLOW  1.0	0.010000	500.000000
M	FLOW	""	FLOW  1.0	0.010000	500.000000
N	FLOW	""	FLOW  1.0	0.010000	500.000000
O	FLOW	""	FLOW  1.0	0.010000	500.000000
P	FLOW	""	FLOW  1.0	0.010000	500.000000
Q	FLOW	""	FLOW  1.0	0.010000	500.000000
R	FLOW	""	FLOW  1.0	0.010000	500.000000
S	FLOW	""	FLOW  1.0	0.010000	500.000000
T	FLOW	""	FLOW  1.0	0.010000	500.000000

[DWF]

[RDII]

[LOADINGS]

[CURVES]
; 
WELWYN.1	PUMP3	24.384001	0.189270
WELWYN.1	36.271198	0.134066
WELWYN.1	67.056000	0.000000

[TIMESERIES]

[PATTERNS]

[REPORT]
;Report Option Set: BASE, Base Simulation Report
INPUT YES
CONTINUITY YES
FLOWSTATS YES
CONTROLS NO
SUBCATCHMENTS  ALL
NODES  ALL
LINKS  ALL

[COORDINATES]
A	701983.866000	452122.108000
B	701950.218000	452147.094000
C	701890.669000	452188.255000
D	701840.033000	452187.646000
E	701802.054000	452190.677000
F	701781.831000	452197.022000
G	701786.125000	452298.197000
H	701794.896000	452309.355000
I	701805.333000	452323.448000
J	701810.698000	452332.318000
K	701809.904000	452348.148000
L	701808.037000	452380.042000
M	701717.752000	452435.444000
N	701688.236000	452458.114000
O	701629.572000	452465.535000
OUTFALL	702192.263000	451981.914000
P	701609.011000	452468.141000
Q	701579.217000	452465.345000
R	701549.074000	452464.857000
S	701539.123000	452467.477000
T	701485.911000	452532.283000


[POLYGONS]

[VERTICES]

1	701993.823000	452114.714000
1	702040.890000	452077.525000
1	702089.878000	452026.421000
10	701810.775000	452330.796000
12	701811.436000	452378.268000
12	701816.847000	452368.529000
12	701809.471000	452356.773000
13	701715.264000	452418.387000
13	701749.431000	452410.625000
14	701720.539000	452454.559000
15	701669.319000	452460.195000
16	701620.293000	452466.782000
17	701605.683000	452468.542000
18	701557.884000	452462.767000
19	701539.880000	452467.037000
20	701487.596000	452526.319000
20	701490.436000	452517.853000
20	701493.067000	452511.187000
20	701500.930000	452494.720000
20	701504.255000	452487.755000
20	701537.106000	452468.650000
3	701894.760000	452187.197000
3	701901.436000	452183.319000
4	701844.775000	452187.237000
4	701849.040000	452187.066000
4	701862.756000	452186.935000
4	701871.371000	452193.226000
5	701807.530000	452190.421000
6	701786.574000	452191.386000
7	701769.015000	452277.091000
7	701757.289000	452257.672000
7	701756.850000	452234.099000
7	701761.410000	452225.318000
7	701767.109000	452216.112000
7	701774.124000	452206.642000
7	701780.963000	452198.049000
8	701792.010000	452305.458000

[SYMBOLS]

[MAP]
DIMENSIONS	701450.593400	451954.395550	702227.580600	452559.801450

