[OPTIONS]
;Option and Files Scenario Set: BASE, Base Simulation Options
FLOW_UNITS	CFS
INFILTRATION	HORTON
FLOW_ROUTING	DYNWAVE
ALLOW_PONDING	NO
DRY_DAYS	5.000000
SKIP_STEADY_STATE 	NO
IGNORE_RAINFALL	NO
IGNORE_SNOWMELT	YES
IGNORE_GROUNDWATER	YES
IGNORE_QUALITY	YES
FORCE_MAIN_EQUATION	H-W
LINK_OFFSETS	DEPTH
MIN_SLOPE	0.000000
START_DATE	01/01/2002
START_TIME	00:00
END_DATE	01/04/2002
END_TIME	06:00
REPORT_START_DATE	01/01/2002
REPORT_START_TIME	00:00
SWEEP_START	01/01
SWEEP_END	12/31
WET_STEP	00:05:00
DRY_STEP	01:00:00
ROUTING_STEP	30
REPORT_STEP	00:05:00
INERTIAL_DAMPING	NONE
VARIABLE_STEP	0.750000
MINIMUM_STEP	0.000000
LENGTHENING_STEP	0
MIN_SURFAREA	0.000000
NORMAL_FLOW_LIMITED	SLOPE
MAX_TRIALS	4
HEAD_TOLERANCE	0.005000

[FILES]

[RAINGAGES]
; New Raingage
RAINGAGE-1	INTENSITY	0.100000	1.000000	TIMESERIES	100YR		

[HYDROGRAPHS]

[TEMPERATURE]

[ADJUSTMENTS]

[SUBCATCHMENTS]
05_101	RAINGAGE-1	200	74.987598	0.000000	500.000000	0.500000	0.000000
05_102	RAINGAGE-1	201	139.640092	0.000000	500.000000	0.500000	0.000000
05_103	RAINGAGE-1	202	41.345446	0.000000	500.000000	0.500000	0.000000
05_104	RAINGAGE-1	203	21.345518	0.000000	500.000000	0.500000	0.000000
05_105	RAINGAGE-1	205	43.894823	0.000000	500.000000	0.500000	0.000000
05_106	RAINGAGE-1	204	38.278673	0.000000	500.000000	0.500000	0.000000
05_107	RAINGAGE-1	206	57.950264	0.000000	500.000000	0.500000	0.000000
05_108	RAINGAGE-1	209	62.731305	0.000000	500.000000	0.500000	0.000000
05_109	RAINGAGE-1	208	39.289368	0.000000	500.000000	0.500000	0.000000
05_110	RAINGAGE-1	319	58.181415	0.000000	500.000000	0.500000	0.000000
05_111	RAINGAGE-1	211	215.705488	0.000000	500.000000	0.500000	0.000000
05_112	RAINGAGE-1	207	82.402187	0.000000	500.000000	0.500000	0.000000
05_113	RAINGAGE-1	232	167.848545	0.000000	500.000000	0.500000	0.000000
05_114	RAINGAGE-1	221	52.392132	0.000000	500.000000	0.500000	0.000000
05_115	RAINGAGE-1	235	33.848089	0.000000	500.000000	0.500000	0.000000
05_116	RAINGAGE-1	212	220.552291	0.000000	500.000000	0.500000	0.000000
05_117	RAINGAGE-1	240	74.236840	0.000000	500.000000	0.500000	0.000000
05_118	RAINGAGE-1	233	309.247605	0.000000	500.000000	0.500000	0.000000
05_119	RAINGAGE-1	238	53.842238	0.000000	500.000000	0.500000	0.000000
05_120	RAINGAGE-1	321	66.274931	0.000000	500.000000	0.500000	0.000000
05_121	RAINGAGE-1	241	59.740242	0.000000	500.000000	0.500000	0.000000
05_122	RAINGAGE-1	251	195.532865	0.000000	500.000000	0.500000	0.000000
05_123	RAINGAGE-1	229	97.588207	0.000000	500.000000	0.500000	0.000000
05_124	RAINGAGE-1	253	19.915916	0.000000	500.000000	0.500000	0.000000
05_125	RAINGAGE-1	255	91.236981	0.000000	500.000000	0.500000	0.000000
05_126	RAINGAGE-1	263	65.470532	0.000000	500.000000	0.500000	0.000000
05_127	RAINGAGE-1	245	19.704782	0.000000	500.000000	0.500000	0.000000
05_128	RAINGAGE-1	323	12.581031	0.000000	500.000000	0.500000	0.000000
05_129	RAINGAGE-1	246	72.803202	0.000000	500.000000	0.500000	0.000000
05_130	RAINGAGE-1	252	74.377801	0.000000	500.000000	0.500000	0.000000
05_131	RAINGAGE-1	264	16.413693	0.000000	500.000000	0.500000	0.000000
05_132	RAINGAGE-1	305	35.444511	0.000000	500.000000	0.500000	0.000000
05_133	RAINGAGE-1	262	46.735192	0.000000	500.000000	0.500000	0.000000
05_134	RAINGAGE-1	255	86.452801	0.000000	500.000000	0.500000	0.000000
05_135	RAINGAGE-1	230	177.987539	0.000000	500.000000	0.500000	0.000000
05_136	RAINGAGE-1	OFALL-10	307.382483	0.000000	500.000000	0.500000	0.000000
05_137	RAINGAGE-1	258	77.426169	0.000000	500.000000	0.500000	0.000000
05_138	RAINGAGE-1	265	100.306484	0.000000	500.000000	0.500000	0.000000
05_139	RAINGAGE-1	268	74.057494	0.000000	500.000000	0.500000	0.000000
05_140	RAINGAGE-1	267	43.146232	0.000000	500.000000	0.500000	0.000000
05_141	RAINGAGE-1	270	72.512266	0.000000	500.000000	0.500000	0.000000
05_142	RAINGAGE-1	270	83.003089	0.000000	500.000000	0.500000	0.000000
05_143	RAINGAGE-1	274	57.043612	0.000000	500.000000	0.500000	0.000000
05_144	RAINGAGE-1	272	36.454359	0.000000	500.000000	0.500000	0.000000
05_145	RAINGAGE-1	279	35.336360	0.000000	500.000000	0.500000	0.000000
05_146	RAINGAGE-1	275	23.822255	0.000000	500.000000	0.500000	0.000000
05_147	RAINGAGE-1	306	27.504476	0.000000	500.000000	0.500000	0.000000
05_148	RAINGAGE-1	280	124.399838	0.000000	500.000000	0.500000	0.000000
05_149	RAINGAGE-1	307	52.194022	0.000000	500.000000	0.500000	0.000000
05_150	RAINGAGE-1	293	80.334383	0.000000	500.000000	0.500000	0.000000
05_151	RAINGAGE-1	282	179.827142	0.000000	500.000000	0.500000	0.000000
05_152	RAINGAGE-1	311	158.363544	0.000000	500.000000	0.500000	0.000000
05_153	RAINGAGE-1	290	25.604440	0.000000	500.000000	0.500000	0.000000
05_154	RAINGAGE-1	284	5.000000	0.000000	500.000000	0.500000	0.000000
05_157	RAINGAGE-1	287	12.317211	0.000000	500.000000	0.500000	0.000000
; South Stocktrail Elem
05_158	RAINGAGE-1	313	310.991294	0.000000	500.000000	0.500000	0.000000
05_159	RAINGAGE-1	289	162.438274	0.000000	500.000000	0.500000	0.000000
05_160	RAINGAGE-1	297	289.389780	0.000000	500.000000	0.500000	0.000000
05_161	RAINGAGE-1	299	124.187623	0.000000	500.000000	0.500000	0.000000
05_162	RAINGAGE-1	302	242.856492	0.000000	500.000000	0.500000	0.000000
05_163	RAINGAGE-1	301	5.000000	0.000000	500.000000	0.500000	0.000000

[SUBAREAS]
05_101	0.100000	0.001000	0.050000	0.050000	25.000000	OUTLET
05_102	0.100000	0.001000	0.050000	0.050000	25.000000	OUTLET
05_103	0.100000	0.001000	0.050000	0.050000	25.000000	OUTLET
05_104	0.100000	0.001000	0.050000	0.050000	25.000000	OUTLET
05_105	0.100000	0.001000	0.050000	0.050000	25.000000	OUTLET
05_106	0.100000	0.001000	0.050000	0.050000	25.000000	OUTLET
05_107	0.100000	0.001000	0.050000	0.050000	25.000000	OUTLET
05_108	0.100000	0.001000	0.050000	0.050000	25.000000	OUTLET
05_109	0.100000	0.001000	0.050000	0.050000	25.000000	OUTLET
05_110	0.100000	0.001000	0.050000	0.050000	25.000000	OUTLET
05_111	0.100000	0.001000	0.050000	0.050000	25.000000	OUTLET
05_112	0.100000	0.001000	0.050000	0.050000	25.000000	OUTLET
05_113	0.100000	0.001000	0.050000	0.050000	25.000000	OUTLET
05_114	0.100000	0.001000	0.050000	0.050000	25.000000	OUTLET
05_115	0.100000	0.001000	0.050000	0.050000	25.000000	OUTLET
05_116	0.100000	0.001000	0.050000	0.050000	25.000000	OUTLET
05_117	0.100000	0.001000	0.050000	0.050000	25.000000	OUTLET
05_118	0.100000	0.001000	0.050000	0.050000	25.000000	OUTLET
05_119	0.100000	0.001000	0.050000	0.050000	25.000000	OUTLET
05_120	0.100000	0.001000	0.050000	0.050000	25.000000	OUTLET
05_121	0.100000	0.001000	0.050000	0.050000	25.000000	OUTLET
05_122	0.100000	0.001000	0.050000	0.050000	25.000000	OUTLET
05_123	0.100000	0.001000	0.050000	0.050000	25.000000	OUTLET
05_124	0.100000	0.001000	0.050000	0.050000	25.000000	OUTLET
05_125	0.100000	0.001000	0.050000	0.050000	25.000000	OUTLET
05_126	0.100000	0.001000	0.050000	0.050000	25.000000	OUTLET
05_127	0.100000	0.001000	0.050000	0.050000	25.000000	OUTLET
05_128	0.100000	0.001000	0.050000	0.050000	25.000000	OUTLET
05_129	0.100000	0.001000	0.050000	0.050000	25.000000	OUTLET
05_130	0.100000	0.001000	0.050000	0.050000	25.000000	OUTLET
05_131	0.100000	0.001000	0.050000	0.050000	25.000000	OUTLET
05_132	0.100000	0.001000	0.050000	0.050000	25.000000	OUTLET
05_133	0.100000	0.001000	0.050000	0.050000	25.000000	OUTLET
05_134	0.100000	0.001000	0.050000	0.050000	25.000000	OUTLET
05_135	0.100000	0.001000	0.050000	0.050000	25.000000	OUTLET
05_136	0.100000	0.001000	0.050000	0.050000	25.000000	OUTLET
05_137	0.100000	0.001000	0.050000	0.050000	25.000000	OUTLET
05_138	0.100000	0.001000	0.050000	0.050000	25.000000	OUTLET
05_139	0.100000	0.001000	0.050000	0.050000	25.000000	OUTLET
05_140	0.100000	0.001000	0.050000	0.050000	25.000000	OUTLET
05_141	0.100000	0.001000	0.050000	0.050000	25.000000	OUTLET
05_142	0.100000	0.001000	0.050000	0.050000	25.000000	OUTLET
05_143	0.100000	0.001000	0.050000	0.050000	25.000000	OUTLET
05_144	0.100000	0.001000	0.050000	0.050000	25.000000	OUTLET
05_145	0.100000	0.001000	0.050000	0.050000	25.000000	OUTLET
05_146	0.100000	0.001000	0.050000	0.050000	25.000000	OUTLET
05_147	0.100000	0.001000	0.050000	0.050000	25.000000	OUTLET
05_148	0.100000	0.001000	0.050000	0.050000	25.000000	OUTLET
05_149	0.100000	0.001000	0.050000	0.050000	25.000000	OUTLET
05_150	0.100000	0.001000	0.050000	0.050000	25.000000	OUTLET
05_151	0.100000	0.001000	0.050000	0.050000	25.000000	OUTLET
05_152	0.100000	0.001000	0.050000	0.050000	25.000000	OUTLET
05_153	0.100000	0.001000	0.050000	0.050000	25.000000	OUTLET
05_154	0.100000	0.001000	0.050000	0.050000	25.000000	OUTLET
05_157	0.100000	0.001000	0.050000	0.050000	25.000000	OUTLET
05_158	0.100000	0.001000	0.050000	0.050000	25.000000	OUTLET
05_159	0.100000	0.001000	0.050000	0.050000	25.000000	OUTLET
05_160	0.100000	0.001000	0.050000	0.050000	25.000000	OUTLET
05_161	0.100000	0.001000	0.050000	0.050000	25.000000	OUTLET
05_162	0.100000	0.001000	0.050000	0.050000	25.000000	OUTLET
05_163	0.100000	0.001000	0.050000	0.050000	25.000000	OUTLET

[INFILTRATION]
05_101	3.000000	0.100000	0.050000	5.000000	0.000000
05_102	3.000000	0.100000	0.050000	5.000000	0.000000
05_103	3.000000	0.100000	0.050000	5.000000	0.000000
05_104	3.000000	0.100000	0.050000	5.000000	0.000000
05_105	3.000000	0.100000	0.050000	5.000000	0.000000
05_106	3.000000	0.100000	0.050000	5.000000	0.000000
05_107	3.000000	0.100000	0.050000	5.000000	0.000000
05_108	3.000000	0.100000	0.050000	5.000000	0.000000
05_109	3.000000	0.100000	0.050000	5.000000	0.000000
05_110	3.000000	0.100000	0.050000	5.000000	0.000000
05_111	3.000000	0.100000	0.050000	5.000000	0.000000
05_112	3.000000	0.100000	0.050000	5.000000	0.000000
05_113	3.000000	0.100000	0.050000	5.000000	0.000000
05_114	3.000000	0.100000	0.050000	5.000000	0.000000
05_115	3.000000	0.100000	0.050000	5.000000	0.000000
05_116	3.000000	0.100000	0.050000	5.000000	0.000000
05_117	3.000000	0.100000	0.050000	5.000000	0.000000
05_118	3.000000	0.100000	0.050000	5.000000	0.000000
05_119	3.000000	0.100000	0.050000	5.000000	0.000000
05_120	3.000000	0.100000	0.050000	5.000000	0.000000
05_121	3.000000	0.100000	0.050000	5.000000	0.000000
05_122	3.000000	0.100000	0.050000	5.000000	0.000000
05_123	3.000000	0.100000	0.050000	5.000000	0.000000
05_124	3.000000	0.100000	0.050000	5.000000	0.000000
05_125	3.000000	0.100000	0.050000	5.000000	0.000000
05_126	3.000000	0.100000	0.050000	5.000000	0.000000
05_127	3.000000	0.100000	0.050000	5.000000	0.000000
05_128	3.000000	0.100000	0.050000	5.000000	0.000000
05_129	3.000000	0.100000	0.050000	5.000000	0.000000
05_130	3.000000	0.100000	0.050000	5.000000	0.000000
05_131	3.000000	0.100000	0.050000	5.000000	0.000000
05_132	3.000000	0.100000	0.050000	5.000000	0.000000
05_133	3.000000	0.100000	0.050000	5.000000	0.000000
05_134	3.000000	0.100000	0.050000	5.000000	0.000000
05_135	3.000000	0.100000	0.050000	5.000000	0.000000
05_136	3.000000	0.100000	0.050000	5.000000	0.000000
05_137	3.000000	0.100000	0.050000	5.000000	0.000000
05_138	3.000000	0.100000	0.050000	5.000000	0.000000
05_139	3.000000	0.100000	0.050000	5.000000	0.000000
05_140	3.000000	0.100000	0.050000	5.000000	0.000000
05_141	3.000000	0.100000	0.050000	5.000000	0.000000
05_142	3.000000	0.100000	0.050000	5.000000	0.000000
05_143	3.000000	0.100000	0.050000	5.000000	0.000000
05_144	3.000000	0.100000	0.050000	5.000000	0.000000
05_145	3.000000	0.100000	0.050000	5.000000	0.000000
05_146	3.000000	0.100000	0.050000	5.000000	0.000000
05_147	3.000000	0.100000	0.050000	5.000000	0.000000
05_148	3.000000	0.100000	0.050000	5.000000	0.000000
05_149	3.000000	0.100000	0.050000	5.000000	0.000000
05_150	3.000000	0.100000	0.050000	5.000000	0.000000
05_151	3.000000	0.100000	0.050000	5.000000	0.000000
05_152	3.000000	0.100000	0.050000	5.000000	0.000000
05_153	3.000000	0.100000	0.050000	5.000000	0.000000
05_157	3.000000	0.100000	0.050000	5.000000	0.000000
05_159	3.000000	0.100000	0.050000	5.000000	0.000000
05_160	3.000000	0.100000	0.050000	5.000000	0.000000
05_161	3.000000	0.100000	0.050000	5.000000	0.000000
05_162	3.000000	0.100000	0.050000	5.000000	0.000000

[AQUIFERS]

[GROUNDWATER]

[GWF]

[SNOWPACKS]

[JUNCTIONS]
200	4674.000000	0.000000	0.000000	0.000000	0.000000
201	4636.000000	0.000000	0.000000	0.000000	0.000000
202	4606.000000	0.000000	0.000000	0.000000	0.000000
203	0.000000	0.000000	0.000000	0.000000	0.000000
205	4590.000000	0.000000	0.000000	0.000000	0.000000
206	4598.000000	0.000000	0.000000	0.000000	0.000000
207	4581.000000	0.000000	0.000000	0.000000	0.000000
208	4620.558291	0.000000	0.000000	0.000000	0.000000
209	4604.268590	8.000000	0.000000	0.000000	0.000000
212	4606.386207	0.000000	0.000000	0.000000	0.000000
213	4595.000000	0.000000	0.000000	0.000000	0.000000
214	4619.000000	0.000000	0.000000	0.000000	0.000000
215	4590.000000	0.000000	0.000000	0.000000	0.000000
216	4581.000000	0.000000	0.000000	0.000000	0.000000
217	4577.000000	0.000000	0.000000	0.000000	0.000000
218	4571.000000	0.000000	0.000000	0.000000	0.000000
219	4579.000000	0.000000	0.000000	0.000000	0.000000
220	4571.000000	0.000000	0.000000	0.000000	0.000000
221	4567.000000	0.000000	0.000000	0.000000	0.000000
222	4569.000000	0.000000	0.000000	0.000000	0.000000
223	4563.000000	0.000000	0.000000	0.000000	0.000000
224	4559.000000	0.000000	0.000000	0.000000	0.000000
225	4556.492586	0.000000	0.000000	0.000000	0.000000
226	4560.000000	0.000000	0.000000	0.000000	0.000000
227	4551.000000	0.000000	0.000000	0.000000	0.000000
228	4557.000000	0.000000	0.000000	0.000000	0.000000
230	4540.000000	0.000000	0.000000	0.000000	0.000000
231	0.000000	0.000000	0.000000	0.000000	0.000000
232	4563.000000	0.000000	0.000000	0.000000	0.000000
233	4586.981954	0.000000	0.000000	0.000000	0.000000
234	4584.635169	0.000000	0.000000	0.000000	0.000000
235	4590.313510	0.000000	0.000000	0.000000	0.000000
236	4591.000000	0.000000	0.000000	0.000000	0.000000
237	4584.422011	0.000000	0.000000	0.000000	0.000000
238	4585.000000	0.000000	0.000000	0.000000	0.000000
239	4577.000000	0.000000	0.000000	0.000000	0.000000
240	4658.000000	0.000000	0.000000	0.000000	0.000000
241	4561.957348	0.000000	0.000000	0.000000	0.000000
242	4563.000000	0.000000	0.000000	0.000000	0.000000
243	4555.317000	0.000000	0.000000	0.000000	0.000000
244	4562.909611	0.000000	0.000000	0.000000	0.000000
245	4568.000000	0.000000	0.000000	0.000000	0.000000
246	4520.000000	0.000000	0.000000	0.000000	0.000000
247	4566.000000	0.000000	0.000000	0.000000	0.000000
248	4606.000000	0.000000	0.000000	0.000000	0.000000
249	4601.000000	0.000000	0.000000	0.000000	0.000000
250	4584.546133	0.000000	0.000000	0.000000	0.000000
251	4560.000000	0.000000	0.000000	0.000000	0.000000
252	4595.361378	0.000000	0.000000	0.000000	0.000000
253	4549.000000	0.000000	0.000000	0.000000	0.000000
254	4545.780478	0.000000	0.000000	0.000000	0.000000
255	4537.000000	0.000000	0.000000	0.000000	0.000000
256	4543.000000	0.000000	0.000000	0.000000	0.000000
257	4530.000000	0.000000	0.000000	0.000000	0.000000
258	4528.034291	0.000000	0.000000	0.000000	0.000000
259	4529.000000	0.000000	0.000000	0.000000	0.000000
260	4526.000000	0.000000	0.000000	0.000000	0.000000
261	4525.695943	0.000000	0.000000	0.000000	0.000000
262	4544.000000	0.000000	0.000000	0.000000	0.000000
263	4544.000000	0.000000	0.000000	0.000000	0.000000
264	4611.000000	0.000000	0.000000	0.000000	0.000000
265	4532.000000	0.000000	0.000000	0.000000	0.000000
266	4515.000000	0.000000	0.000000	0.000000	0.000000
267	4528.000000	0.000000	0.000000	0.000000	0.000000
268	4534.000000	0.000000	0.000000	0.000000	0.000000
269	4519.000000	0.000000	0.000000	0.000000	0.000000
270	4519.000000	0.000000	0.000000	0.000000	0.000000
271	4511.000000	0.000000	0.000000	0.000000	0.000000
272	4531.000000	0.000000	0.000000	0.000000	0.000000
273	4524.000000	0.000000	0.000000	0.000000	0.000000
274	4525.000000	0.000000	0.000000	0.000000	0.000000
275	4527.329721	0.000000	0.000000	0.000000	0.000000
276	4530.098679	0.000000	0.000000	0.000000	0.000000
277	4529.000000	0.000000	0.000000	0.000000	0.000000
278	4528.539192	0.000000	0.000000	0.000000	0.000000
279	4529.000000	0.000000	0.000000	0.000000	0.000000
280	4519.159095	0.000000	0.000000	0.000000	0.000000
281	4519.000000	0.000000	0.000000	0.000000	0.000000
282	4510.000000	0.000000	0.000000	0.000000	0.000000
283	4513.468588	0.000000	0.000000	0.000000	0.000000
284	4509.000000	0.000000	0.000000	0.000000	0.000000
285	4509.000000	0.000000	0.000000	0.000000	0.000000
286	4508.000000	0.000000	0.000000	0.000000	0.000000
287	4506.454105	0.000000	0.000000	0.000000	0.000000
288	4506.000000	0.000000	0.000000	0.000000	0.000000
289	4502.308195	0.000000	0.000000	0.000000	0.000000
290	4506.221939	0.000000	0.000000	0.000000	0.000000
291	4503.000000	0.000000	0.000000	0.000000	0.000000
292	4512.820044	0.000000	0.000000	0.000000	0.000000
293	4510.700563	0.000000	0.000000	0.000000	0.000000
294	4508.000000	0.000000	0.000000	0.000000	0.000000
295	4508.148247	0.000000	0.000000	0.000000	0.000000
296	4507.000000	0.000000	0.000000	0.000000	0.000000
297	4493.000000	0.000000	0.000000	0.000000	0.000000
298	4495.000000	0.000000	0.000000	0.000000	0.000000
299	4445.000000	28.000000	0.000000	0.000000	0.000000
300	4473.000000	0.000000	0.000000	0.000000	0.000000
302	4509.276282	0.000000	0.000000	0.000000	0.000000
303	4507.000000	0.000000	0.000000	0.000000	0.000000
304	4458.976362	0.000000	0.000000	0.000000	0.000000
305	4551.000000	0.000000	0.000000	0.000000	0.000000
306	4540.012174	0.000000	0.000000	0.000000	0.000000
308	4529.869429	0.000000	0.000000	0.000000	0.000000
310	4533.000000	0.000000	0.000000	0.000000	0.000000
311	4520.000000	0.000000	0.000000	0.000000	0.000000
312	4521.000000	0.000000	0.000000	0.000000	0.000000
313	4512.000000	0.000000	0.000000	0.000000	0.000000
314	4625.000000	0.000000	0.000000	0.000000	0.000000
315	4625.000000	0.000000	0.000000	0.000000	0.000000
316	4611.000000	0.000000	0.000000	0.000000	0.000000
317	4634.000000	0.000000	0.000000	0.000000	0.000000
318	4636.885592	0.000000	0.000000	0.000000	0.000000
320	4591.978759	0.000000	0.000000	0.000000	0.000000
322	4583.346578	0.000000	0.000000	0.000000	0.000000
327	4615.000000	0.000000	0.000000	0.000000	0.000000
328	4594.000000	0.000000	0.000000	0.000000	0.000000
329	4536.140111	0.000000	0.000000	0.000000	0.000000
330	4548.000000	0.000000	0.000000	0.000000	0.000000
331	4569.601930	0.000000	0.000000	0.000000	0.000000
332	4563.000000	0.000000	0.000000	0.000000	0.000000
333	0.000000	0.000000	0.000000	0.000000	0.000000
334	4533.000000	0.000000	0.000000	0.000000	0.000000
335	4531.071804	0.000000	0.000000	0.000000	0.000000
336	4533.832049	0.000000	0.000000	0.000000	0.000000

[OUTFALLS]
301	0.000000	FREE	NO
; New Outfall
OFALL-10	0.000000	FREE	NO

[DIVIDERS]
; Climate Set: BASE
210	4620.000000	430	OVERFLOW	0.000000	0.000000	0.000000	0.000000
; Climate Set: BASE
229	4548.000000	354	WEIR	0.000000	8.000000	192.000000	0.000000	0.000000	0.000000	0.000000
; Climate Set: BASE
DIV-10	4556.587000	436	OVERFLOW	0.000000	0.000000	0.000000	0.000000

[STORAGE]
; Iron Horse Sub
204	4623.000000	5.000000	0.000000	TABULAR	BASIN_106_POND	0.000000	0.000000
; South Stocktrail Elem
211	4635.000000	5.000000	0.000000	TABULAR	BASIN_111_POND	0.000000	0.000000
; Lakeland Hills Sub
307	4530.000000	5.000000	0.000000	TABULAR	BASIN_149_POND	0.000000	0.000000
; Energy Park
309	4516.000000	5.000000	0.000000	TABULAR	BASIN_152_POND	0.000000	0.000000
; Westover Hills
319	4617.000000	5.000000	0.000000	TABULAR	BASIN_110_POND	0.000000	0.000000
; West Valley Sub
321	4581.000000	5.000000	0.000000	TABULAR	BASIN_120_POND	0.000000	0.000000
; Campbell Cty Mem Hospital
323	4599.000000	5.000000	0.000000	TABULAR	BASIN_128_POND	0.000000	0.000000
; Lasting Legacy Park
324	4531.000000	5.000000	0.000000	TABULAR	BASIN_139_POND	0.000000	0.000000
; District 42
325	4527.000000	5.000000	0.000000	TABULAR	BASIN_146_POND	0.000000	0.000000
; Camplex Pond
326	4509.000000	5.000000	0.000000	TABULAR	BASIN_162_POND	0.000000	0.000000

[CONDUITS]
300	200	201	2182.085666	0.035000	0.000000	0.000000	0.000000	0.000000
301	201	203	908.249795	0.035000	0.000000	0.000000	0.000000	0.000000
302	203	316	1752.960558	0.010000	0.000000	0.000000	0.000000	0.000000
303	317	210	491.355548	0.010000	0.000000	0.000000	0.000000	0.000000
304	327	209	553.689436	0.035000	0.000000	0.000000	0.000000	0.000000
; Culvert size was a visual estimate
305	209	202	244.066442	0.040000	0.000000	0.000000	0.000000	0.000000
306	208	214	127.361685	0.013000	0.000000	0.000000	0.000000	0.000000
307	214	209	743.226562	0.010000	0.000000	0.000000	0.000000	0.000000
308	202	206	2472.504479	0.010000	0.000000	0.000000	0.000000	0.000000
309	212	319	870.744770	0.035000	0.000000	0.000000	0.000000	0.000000
310	213	215	186.042571	0.024000	0.000000	0.000000	0.000000	0.000000
311	215	206	76.789016	0.035000	0.000000	0.000000	0.000000	0.000000
312	206	207	1815.590299	0.035000	0.000000	0.000000	0.000000	0.000000
313	207	216	60.482470	0.024000	0.000000	0.000000	0.000000	0.000000
314	217	219	65.978208	0.024000	0.000000	0.000000	0.000000	0.000000
315	216	217	258.201712	0.010000	0.000000	0.000000	0.000000	0.000000
316	219	220	1006.376898	0.010000	0.000000	0.000000	0.000000	0.000000
317	220	218	150.396144	0.013000	0.000000	0.000000	0.000000	0.000000
318	218	221	277.787088	0.035000	0.000000	0.000000	0.000000	0.000000
319	221	222	281.460315	0.013000	0.000000	0.000000	0.000000	0.000000
320	224	225	160.566316	0.035000	0.000000	0.000000	0.000000	0.000000
321	222	223	1130.700969	0.035000	0.000000	0.000000	0.000000	0.000000
322	223	224	132.998718	0.013000	0.000000	0.000000	0.000000	0.000000
323	225	226	118.658986	0.013000	0.000000	0.000000	0.000000	0.000000
324	226	251	208.123413	0.035000	0.000000	0.000000	0.000000	0.000000
325	228	229	1503.658648	0.010000	0.000000	0.000000	0.000000	0.000000
326	229	230	3855.367461	0.035000	0.000000	0.000000	0.000000	0.000000
327	230	231	123.446514	0.013000	0.000000	0.000000	0.000000	0.000000
328	231	OFALL-10	1466.846674	0.010000	0.000000	0.000000	0.000000	0.000000
329	227	228	92.322348	0.013000	0.000000	0.000000	0.000000	0.000000
330	205	332	1987.039054	0.016000	0.000000	0.000000	0.000000	0.000000
331	232	333	120.843752	0.013000	0.000000	0.000000	0.000000	0.000000
332	235	236	148.388120	0.013000	0.000000	0.000000	0.000000	0.000000
333	236	234	383.171164	0.035000	0.000000	0.000000	0.000000	0.000000
334	233	234	229.504983	0.024000	0.000000	0.000000	0.000000	0.000000
335	234	237	668.341211	0.024000	0.000000	0.000000	0.000000	0.000000
336	237	238	246.403465	0.035000	0.000000	0.000000	0.000000	0.000000
337	238	239	249.641433	0.024000	0.000000	0.000000	0.000000	0.000000
338	239	220	621.026639	0.024000	0.000000	0.000000	0.000000	0.000000
339	240	233	4747.453766	0.035000	0.000000	0.000000	0.000000	0.000000
340	241	242	95.143871	0.024000	0.000000	0.000000	0.000000	0.000000
343	DIV-10	243	560.574723	0.013000	0.000000	0.000000	0.000000	0.000000
344	243	226	398.696197	0.013000	0.000000	0.000000	0.000000	0.000000
345	244	241	215.866861	0.035000	0.000000	0.000000	0.000000	0.000000
346	246	247	104.521421	0.024000	0.000000	0.000000	0.000000	0.000000
347	247	245	1854.939451	0.035000	0.000000	0.000000	0.000000	0.000000
348	245	244	170.558628	0.013000	0.000000	0.000000	0.000000	0.000000
349	248	249	85.713475	0.024000	0.000000	0.000000	0.000000	0.000000
350	249	246	1376.168418	0.035000	0.000000	0.000000	0.000000	0.000000
351	250	218	1088.956624	0.024000	0.000000	0.000000	0.000000	0.000000
; Splitted conduit
352	251	227	589.485667	0.035000	0.000000	0.000000	0.000000	0.000000
353	252	331	1684.425730	0.013000	0.000000	0.000000	0.000000	0.000000
354	229	254	86.191828	0.035000	4.000000	0.000000	0.000000	0.000000
355	254	253	616.403297	0.035000	0.000000	0.000000	0.000000	0.000000
356	253	256	131.127707	0.013000	0.000000	0.000000	0.000000	0.000000
357	256	255	2596.483027	0.035000	0.000000	0.000000	0.000000	0.000000
358	255	257	1975.384667	0.013000	0.000000	0.000000	0.000000	0.000000
359	257	258	325.504901	0.035000	0.000000	0.000000	0.000000	0.000000
360	258	259	47.620651	0.019000	0.000000	0.000000	0.000000	0.000000
361	259	261	148.756912	0.019000	0.000000	0.000000	0.000000	0.000000
362	261	260	1129.796410	0.035000	0.000000	0.000000	0.000000	0.000000
363	262	263	357.039854	0.013000	0.000000	0.000000	0.000000	0.000000
364	263	329	1200.561149	0.013000	0.000000	0.000000	0.000000	0.000000
365	264	262	1788.895242	0.024000	0.000000	0.000000	0.000000	0.000000
366	265	261	161.816633	0.013000	0.000000	0.000000	0.000000	0.000000
367	268	267	1260.267401	0.013000	0.000000	0.000000	0.000000	0.000000
368	267	266	1852.048041	0.013000	0.000000	0.000000	0.000000	0.000000
369	260	269	880.948514	0.013000	0.000000	0.000000	0.000000	0.000000
370	269	266	476.399536	0.035000	0.000000	0.000000	0.000000	0.000000
371	266	270	467.047632	0.035000	0.000000	0.000000	0.000000	0.000000
372	270	271	998.944572	0.035000	0.000000	0.000000	0.000000	0.000000
373	272	273	1154.084906	0.012000	0.000000	0.000000	0.000000	0.000000
374	274	273	875.361746	0.013000	0.000000	0.000000	0.000000	0.000000
375	273	270	2391.043730	0.024000	0.000000	0.000000	0.000000	0.000000
376	275	276	119.524963	0.024000	0.000000	0.000000	0.000000	0.000000
377	276	278	579.693325	0.035000	0.000000	0.000000	0.000000	0.000000
378	278	277	116.603966	0.013000	0.000000	0.000000	0.000000	0.000000
379	277	279	555.793105	0.010000	0.000000	0.000000	0.000000	0.000000
380	279	281	2200.112560	0.010000	0.000000	0.000000	0.000000	0.000000
381	280	281	98.684385	0.035000	0.000000	0.000000	0.000000	0.000000
382	281	282	3167.206786	0.010000	0.000000	0.000000	0.000000	0.000000
383	282	285	129.048743	0.024000	0.000000	0.000000	0.000000	0.000000
384	285	283	136.135554	0.024000	0.000000	0.000000	0.000000	0.000000
385	283	284	281.942579	0.010000	0.000000	0.000000	0.000000	0.000000
386	284	286	413.104034	0.024000	0.000000	0.000000	0.000000	0.000000
387	286	287	660.040043	0.010000	0.000000	0.000000	0.000000	0.000000
388	287	288	138.243760	0.024000	0.000000	0.000000	0.000000	0.000000
389	288	289	1448.187007	0.035000	0.000000	0.000000	0.000000	0.000000
390	290	291	254.433942	0.013000	0.000000	0.000000	0.000000	0.000000
391	291	289	471.325487	0.035000	0.000000	0.000000	0.000000	0.000000
392	271	292	95.439512	0.013000	0.000000	0.000000	0.000000	0.000000
393	292	293	617.076168	0.010000	0.000000	0.000000	0.000000	0.000000
394	293	294	113.206537	0.013000	0.000000	0.000000	0.000000	0.000000
395	294	295	510.230914	0.035000	0.000000	0.000000	0.000000	0.000000
396	295	296	92.602796	0.013000	0.000000	0.000000	0.000000	0.000000
397	296	290	1932.701505	0.019000	0.000000	0.000000	0.000000	0.000000
398	297	298	133.482355	0.024000	0.000000	0.000000	0.000000	0.000000
399	289	297	5005.100224	0.035000	0.000000	0.000000	0.000000	0.000000
400	298	299	8320.875559	0.035000	0.000000	0.000000	0.000000	0.000000
401	299	300	148.015233	0.013000	0.000000	0.000000	0.000000	0.000000
402	300	304	4647.716812	0.035000	0.000000	0.000000	0.000000	0.000000
403	302	303	192.686204	0.013000	0.000000	0.000000	0.000000	0.000000
404	304	301	2247.541404	0.035000	0.000000	0.000000	0.000000	0.000000
405	303	304	3495.287839	0.035000	0.000000	0.000000	0.000000	0.000000
406	305	330	573.293132	0.013000	0.000000	0.000000	0.000000	0.000000
407	306	307	1622.136405	0.016000	0.000000	0.000000	0.000000	0.000000
408	310	334	121.425359	0.024000	0.000000	0.000000	0.000000	0.000000
409	308	309	1911.347685	0.016000	0.000000	0.000000	0.000000	0.000000
410	311	312	57.584177	0.013000	0.000000	0.000000	0.000000	0.000000
411	312	282	2313.383137	0.010000	0.000000	0.000000	0.000000	0.000000
412	313	287	1517.193339	0.035000	0.000000	0.000000	0.000000	0.000000
413	315	314	96.282078	0.013000	0.000000	0.000000	0.000000	0.000000
; Splitted conduit
414	316	205	1109.482724	0.010000	0.000000	0.000000	0.000000	0.000000
415	314	316	160.219703	0.035000	0.000000	0.000000	0.000000	0.000000
417	318	317	108.515174	0.013000	0.000000	0.000000	0.000000	0.000000
420	320	213	134.330844	0.035000	0.000000	0.000000	0.000000	0.000000
421	322	250	445.766238	0.024000	0.000000	0.000000	0.000000	0.000000
429	210	327	99.788875	0.013000	0.000000	0.000000	0.000000	0.000000
430	210	327	118.012520	0.010000	0.000000	0.000000	0.000000	0.000000
431	328	320	46.651715	0.024000	0.000000	0.000000	0.000000	0.000000
432	329	335	706.973988	0.019000	0.000000	0.000000	0.000000	0.000000
; Splitted conduit
433	330	263	1134.298755	0.013000	0.000000	0.000000	0.000000	0.000000
; Splitted conduit
434	331	246	94.068597	0.010000	0.000000	0.000000	0.000000	0.000000
435	242	DIV-10	27.985401	0.010000	0.000000	0.000000	0.000000	0.000000
436	DIV-10	243	556.144064	0.035000	4.000000	0.000000	0.000000	0.000000
; Splitted conduit
437	332	232	563.528173	0.016000	0.000000	0.000000	0.000000	0.000000
; Splitted conduit
438	333	251	2911.643840	0.035000	0.000000	0.000000	0.000000	0.000000
; Splitted conduit
439	334	308	316.832327	0.010000	0.000000	0.000000	0.000000	0.000000
440	335	336	60.208007	0.019000	0.000000	0.000000	0.000000	0.000000
441	336	261	439.553989	0.019000	0.000000	0.000000	0.000000	0.000000

[PUMPS]

[ORIFICES]
416	204	315	SIDE	0.100000	0.600000	NO
419	319	328	SIDE	0.100000	0.600000	NO
422	321	322	SIDE	0.100000	0.600000	NO
423	323	248	SIDE	0.000000	0.600000	NO
424	324	268	SIDE	0.000000	0.600000	NO
425	325	275	SIDE	0.100000	0.600000	NO
426	307	310	SIDE	0.600000	0.600000	NO
427	309	311	SIDE	0.100000	0.600000	NO
428	326	302	SIDE	0.000000	0.600000	NO

[WEIRS]
418	211	318	TRAPEZOIDAL	10.000000	3.200000	NO	0	0.000000	YES

[XSECTIONS]
300	IRREGULAR	1	0.000000	0.000000	0.000000
301	TRIANGULAR	3.000000	15.000000	0.000000	0.000000	1	0
302	TRAPEZOIDAL	4.000000	70.000000	2.500000	5.000000	1	0
303	TRAPEZOIDAL	12.000000	12.000000	2.000000	2.000000	1	0
304	TRIANGULAR	6.000000	60.000000	0.000000	0.000000	1	0
305	CIRCULAR	3.500000	0.000000	0.000000	0.000000	1	0
306	CIRCULAR	2.500000	0.000000	0.000000	0.000000	1	0
307	TRIANGULAR	4.000000	20.000000	0.000000	0.000000	1	0
308	TRAPEZOIDAL	10.000000	45.000000	2.000000	2.000000	1	0
309	TRAPEZOIDAL	15.000000	15.000000	6.000000	6.000000	1	0
310	CIRCULAR	6.000000	0.000000	0.000000	0.000000	1	0
311	TRAPEZOIDAL	6.000000	45.000000	3.000000	3.000000	1	0
312	IRREGULAR	2	0.000000	0.000000	0.000000
313	CIRCULAR	4.500000	0.000000	0.000000	0.000000	2	0