[OPTIONS]
;Option and Files Scenario Set: 24-HR_EPS, 24-hr simulation
FLOW_UNITS		GPM
INFILTRATION		HORTON
FLOW_ROUTING		DYNWAVE
LINK_OFFSETS		DEPTH
MIN_SLOPE		0.000000
ALLOW_PONDING		NO
SKIP_STEADY_STATE 	NO
IGNORE_RAINFALL		YES
IGNORE_SNOWMELT		YES
IGNORE_GROUNDWATER	YES
IGNORE_QUALITY		YES

START_DATE		03/12/2010
START_TIME		00:00
REPORT_START_DATE	03/12/2010
REPORT_START_TIME	00:00
END_DATE		03/13/2010
END_TIME		00:00
SWEEP_START		01/01
SWEEP_END		12/31
DRY_DAYS		5.000000
REPORT_STEP		00:00:05
WET_STEP		00:00:05
DRY_STEP		00:00:05
ROUTING_STEP		5

INERTIAL_DAMPING	NONE
NORMAL_FLOW_LIMITED	BOTH
FORCE_MAIN_EQUATION	H-W
VARIABLE_STEP		0.750000
LENGTHENING_STEP	5
MIN_SURFAREA		0.000000
MAX_TRIALS		8
HEAD_TOLERANCE	0.001000
MINIMUM_STEP		0.5


[FILES]

[RAINGAGES]

[HYDROGRAPHS]

[TEMPERATURE]

[ADJUSTMENTS]

[SUBCATCHMENTS]

[SUBAREAS]

[INFILTRATION]

[AQUIFERS]

[GROUNDWATER]

[GWF]

[SNOWPACKS]

[JUNCTIONS]
; min. slope, GIS grd elev
01-115	-1.073000	13.073000	0.000000	0.000000	0.000000
; min. slope, GIS grd elev
01-124	-1.283000	13.283000	0.000000	0.000000	0.000000
; surveyed elevations
01-134	0.210000	12.690000	0.000000	0.000000	0.000000
; surveyed elevations
01-135	0.890000	14.080000	0.000000	0.000000	0.000000
; surveyed elevations
01-136	1.850000	15.020000	0.000000	0.000000	0.000000
; surveyed elevations
01-148	2.740000	13.900000	0.000000	0.000000	0.000000
01-151	2.700000	14.190000	0.000000	0.000000	0.000000
; surveyed elevations
01-152	3.010000	13.740000	0.000000	0.000000	0.000000
; min slope, GIS grd elev
01-183	5.676000	8.324000	0.000000	0.000000	0.000000
; surveyed elevations
01-187	4.460000	10.780000	0.000000	0.000000	0.000000
; min slope, GIS grd elev
01-188	6.528000	7.472000	0.000000	0.000000	0.000000
; min slope, GIS grd elev
01-192	7.368000	6.632000	0.000000	0.000000	0.000000
; min slope, GIS grd elev
01-196	8.199000	5.801000	0.000000	0.000000	0.000000
; surveyed elevations
01-20	1.400000	12.830000	0.000000	0.000000	0.000000
01-204	9.051000	4.949000	0.000000	0.000000	0.000000
01-206	10.842000	3.158000	0.000000	0.000000	0.000000
; surveyed elevations
01-21	1.460000	12.190000	0.000000	0.000000	0.000000
; surveyed elevations
01-212	6.860000	8.180000	0.000000	0.000000	0.000000
; surveyed elevations
01-226	3.690000	12.950000	0.000000	0.000000	0.000000
; surveyed elevations
01-227	5.160000	10.360000	0.000000	0.000000	0.000000
; surveyed elevations
01-23	1.760000	11.360000	0.000000	0.000000	0.000000
; surveyed elevations
01-231	6.670000	9.400000	0.000000	0.000000	0.000000
; surveyed elevations
01-232	8.020000	7.510000	0.000000	0.000000	0.000000
; surveyed elevations
01-233	8.790000	6.900000	0.000000	300.000000	0.000000
; surveyed elevations
01-24	2.110000	12.460000	0.000000	0.000000	0.000000
01-25	2.520000	9.720000	0.000000	0.000000	0.000000
01-28	2.950000	10.450000	0.000000	0.000000	0.000000
01-38	3.260000	10.780000	0.000000	0.000000	0.000000
01-39	2.610000	11.380000	0.000000	0.000000	0.000000
01-40	3.380000	9.960000	0.000000	0.000000	0.000000
01-41	3.860000	8.510000	0.000000	0.000000	0.000000
01-42	3.910000	8.440000	0.000000	0.000000	0.000000
01-44	4.460000	7.930000	0.000000	0.000000	0.000000
01-45	6.210000	7.640000	0.000000	0.000000	0.000000
01-46	7.380000	6.280000	0.000000	0.000000	0.000000
; surveyed elevations
01-89	0.770000	12.270000	0.000000	0.000000	0.000000
; surveyed elevations
01-90	0.420000	12.530000	0.000000	0.000000	0.000000
; surveyed elevations
01-91	0.120000	11.360000	0.000000	0.000000	0.000000
; surveyed elevations
01-92	-0.500000	11.330000	0.000000	0.000000	0.000000
01-A-40	7.530000	5.450000	0.000000	0.000000	0.000000
01-A6	6.210000	7.450000	0.000000	0.000000	0.000000
; surveyed elevations
04-11	3.530000	4.250000	0.000000	0.000000	0.000000
; surveyed elevations
04-12	2.140000	5.710000	0.000000	0.000000	0.000000
; surveyed elevations
04-13	1.030000	8.520000	0.000000	0.000000	0.000000
; surveyed elevations
04-16	-4.260000	10.190000	0.000000	0.000000	0.000000
; surveyed elevations
04-18	-4.410000	10.400000	0.000000	0.000000	0.000000
; surveyed elevations
04-21	-3.230000	9.900000	0.000000	0.000000	0.000000
; surveyed elevations
04-27	-1.810000	10.650000	0.000000	0.000000	0.000000
04-28	-0.480000	9.020000	0.000000	0.000000	0.000000
; surveyed elevations
05-23	-7.910000	11.050000	0.000000	0.000000	0.000000
; surveyed elevations
05-24	-7.700000	10.810000	0.000000	0.000000	0.000000
; surveyed elevations
05-25	-7.150000	10.200000	0.000000	0.000000	0.000000
; surveyed elevations
05-26	-5.520000	9.060000	0.000000	0.000000	0.000000
; surveyed elevations
05-27	-5.000000	8.510000	0.000000	0.000000	0.000000
; surveyed elevations
05-29	-3.960000	7.490000	0.000000	0.000000	0.000000
; surveyed elevations
05-30	-3.770000	7.230000	0.000000	0.000000	0.000000
; est invert
05-40	-8.160000	11.930000	0.000000	0.000000	0.000000
; smoke test data
06-04	1.660000	5.250000	0.000000	0.000000	0.000000
; smoke test data
06-09	-4.250000	10.250000	0.000000	0.000000	0.000000
; smoke test data
06-11	-4.226000	10.326000	0.000000	0.000000	0.000000
06-12	-3.344000	15.344000	0.000000	0.000000	0.000000
06-21	-3.431000	9.431000	0.000000	0.000000	0.000000
06-22	-2.695000	8.695000	0.000000	0.000000	0.000000
06-25	-1.558000	7.558000	0.000000	0.000000	0.000000
06-27	-0.909000	6.909000	0.000000	0.000000	0.000000
06-28	0.169000	5.831000	0.000000	0.000000	0.000000
06-29	1.199000	4.801000	0.000000	0.000000	0.000000
06-30	2.196000	3.804000	0.000000	0.000000	0.000000
06-31	3.064000	2.936000	0.000000	0.000000	0.000000
06-52	-2.448000	14.448000	0.000000	0.000000	0.000000
06-53	-1.043000	13.043000	0.000000	0.000000	0.000000
06-54	0.302000	11.698000	0.000000	0.000000	0.000000
06-55	0.673000	11.327000	0.000000	0.000000	0.000000
06-56	1.950000	12.250000	0.000000	0.000000	0.000000
; surveyed elevations
08-01	-3.140000	15.140000	0.000000	0.000000	0.000000
; surveyed elevations
08-02	-2.780000	15.070000	0.000000	0.000000	0.000000
; surveyed elevations
08-09	-0.770000	11.470000	0.000000	0.000000	0.000000
; const. slope, GIS grd elev
08-13	0.925000	9.075000	0.000000	0.000000	0.000000
; surveyed elevations
08-14	0.180000	8.290000	0.000000	0.000000	0.000000
; surveyed elevations
08-19	2.480000	5.320000	0.000000	0.000000	0.000000
; surveyed elevations
09-01	0.790000	7.970000	0.000000	0.000000	0.000000
; surveyed elevations
09-02	3.340000	6.740000	0.000000	0.000000	0.000000
; surveyed elevations
09-03	4.450000	5.470000	0.000000	0.000000	0.000000
; surveyed elevations
09-04	5.880000	4.190000	0.000000	0.000000	0.000000
; surveyed elevations
09-06	7.070000	4.160000	0.000000	0.000000	0.000000
; surveyed elevations
1000-1	3.420000	4.050000	0.000000	0.000000	0.000000
; surveyed elevations
1000-13	-1.200000	12.270000	0.000000	0.000000	0.000000
; surveyed elevations
1000-14	1.690000	8.750000	0.000000	0.000000	0.000000
; surveyed elevations
1000-15	3.100000	6.660000	0.000000	0.000000	0.000000
; surveyed elevations
1000-16	-3.900000	13.630000	0.000000	0.000000	0.000000
; surveyed elevations
1000-17	-1.910000	11.380000	0.000000	0.000000	0.000000
; surveyed elevations
1000-18	10.870000	3.050000	0.000000	0.000000	0.000000
; surveyed elevations
1000-2	2.300000	5.960000	0.000000	0.000000	0.000000
; min. slope, GIS grd elev
1000-20	-6.667000	14.667000	0.000000	0.000000	0.000000
; surveyed elevations
1000-23	-6.180000	14.210000	0.000000	0.000000	0.000000
; surveyed elevations
1000-24	2.190000	15.740000	0.000000	0.000000	0.000000
; surveyed elevations
1000-28	5.140000	8.680000	0.000000	0.000000	0.000000
1000-29	-5.400000	11.850000	0.000000	0.000000	0.000000
; min. slope, GIS grd elev
1000-3	-6.355000	16.355000	0.000000	0.000000	0.000000
; surveyed elevations
1000-4	4.690000	10.810000	0.000000	0.000000	0.000000
; surveyed elevations
1000-5	4.180000	11.200000	0.000000	0.000000	0.000000
; const. slope, GIS grd elev
1000-6	6.494000	5.506000	0.000000	0.000000	0.000000
; min. slope, GIS grd elev
1000-7	-6.901000	14.901000	0.000000	0.000000	0.000000
; min. slope, GIS grd elev
1000-8	-1.223000	13.223000	0.000000	0.000000	0.000000
; surveyed elevations
1000-9	2.200000	6.820000	0.000000	0.000000	0.000000
; min. slope, GIS grd elev
13-01	-0.235000	2.235000	0.000000	0.000000	0.000000
; min. slope, GIS grd elev
13-02	0.713000	1.287000	0.000000	0.000000	0.000000
; min. slope, GIS grd elev
13-04	1.061000	2.939000	0.000000	0.000000	0.000000
; min. slope, GIS grd elev
13-05	2.117000	1.883000	0.000000	0.000000	0.000000
; min. slope, GIS grd elev
13-10	2.912000	1.088000	0.000000	0.000000	0.000000
; surveyed elevations
25-01	-4.710000	10.870000	0.000000	0.000000	0.000000
; surveyed elevations
25-02	-4.460000	10.560000	0.000000	0.000000	0.000000
; surveyed elevations
25-03	-2.640000	9.140000	0.000000	0.000000	0.000000
; const. slope, GIS grd elev
25-06	-3.830000	7.830000	0.000000	0.000000	0.000000
; surveyed elevations
25-07	-3.250000	7.230000	0.000000	0.000000	0.000000
; surveyed elevations
25-08	-2.640000	7.110000	0.000000	0.000000	0.000000
; surveyed elevations
25-09	-1.910000	6.090000	0.000000	0.000000	0.000000
; surveyed elevations
25-10	-1.450000	5.230000	0.000000	0.000000	0.000000
; surveyed elevations
25-11	-0.890000	4.690000	0.000000	0.000000	0.000000
; surveyed elevations
25-12	-0.460000	4.750000	0.000000	0.000000	0.000000
; surveyed elevations
25-13	-0.230000	4.650000	0.000000	0.000000	0.000000
; surveyed elevations
27-34	0.160000	10.280000	0.000000	0.000000	0.000000
; surveyed elevations
27-35	1.530000	9.610000	0.000000	0.000000	0.000000
; surveyed elevations
27-36	2.990000	7.570000	0.000000	0.000000	0.000000
; surveyed elevations
27-37	3.990000	6.150000	0.000000	0.000000	0.000000
; surveyed elevations
27-47	5.320000	5.760000	0.000000	0.000000	0.000000
; surveyed elevations
27-A28	7.260000	3.540000	0.000000	0.000000	0.000000
; surveyed elevations
29-01A	6.340000	8.230000	0.000000	0.000000	0.000000
; surveyed elevations
29-03	7.610000	6.050000	0.000000	0.000000	0.000000
; surveyed elevations
29-08	8.770000	4.980000	0.000000	0.000000	0.000000
; surveyed elevations
29-09	8.070000	5.790000	0.000000	0.000000	0.000000
; min. slope, GIS grd elev
34-01	-6.754000	14.754000	0.000000	0.000000	0.000000
; const. slope, GIS grd elev
34-17	1.902000	6.098000	0.000000	0.000000	0.000000
; surveyed elevations
34-20	3.150000	7.650000	0.000000	0.000000	0.000000
; surveyed elevations
34-21	4.560000	5.640000	0.000000	0.000000	0.000000
; survey elevations
34-23	7.020000	4.890000	0.000000	0.000000	0.000000
; surveyed elevations
34-26	7.700000	5.490000	0.000000	0.000000	0.000000
; surveyed elevations
34-28	9.420000	3.470000	0.000000	0.000000	0.000000
; surveyed elevations
34-29	10.010000	3.360000	0.000000	0.000000	0.000000
; surveyed elevations
39-01	1.650000	15.880000	0.000000	0.000000	0.000000
; surveyed elevations
39-02	1.850000	15.660000	0.000000	0.000000	0.000000
; surveyed elevations
39-03	4.160000	12.730000	0.000000	0.000000	0.000000
; surveyed elevations
39-04	5.580000	10.770000	0.000000	0.000000	0.000000
; surveyed elevations
39-05	6.980000	8.940000	0.000000	0.000000	0.000000
; surveyed elevations
39-06	8.450000	7.100000	0.000000	0.000000	0.000000
; surveyed elevations
39-07	9.840000	5.470000	0.000000	0.000000	0.000000
39-08	11.240000	4.200000	0.000000	0.000000	0.000000
; surveyed elevations
39-09	3.510000	15.960000	0.000000	0.000000	0.000000
; surveyed elevations
39-10	4.280000	14.160000	0.000000	0.000000	0.000000
; surveyed elevations
39-11	5.030000	13.790000	0.000000	0.000000	0.000000
; surveyed elevations
39-12	5.690000	11.540000	0.000000	0.000000	0.000000
; surveyed elevations
39-14	6.230000	10.130000	0.000000	0.000000	0.000000
; const. slope, GIS grd elev
39-26	7.112000	8.848000	0.000000	0.000000	0.000000
; surveyed elevations
39-27	7.660000	8.770000	0.000000	0.000000	0.000000
; surveyed elevations
39-28	8.470000	7.720000	0.000000	0.000000	0.000000
; surveyed elevations
39-29	9.170000	7.210000	0.000000	0.000000	0.000000
; min. slope, GIS grd elev
39-31	10.205000	5.795000	0.000000	0.000000	0.000000
; surveyed elevations
44-A34	10.550000	2.900000	0.000000	0.000000	0.000000
; surveyed rim, est. invert
57-01	6.143000	7.697000	0.000000	0.000000	0.000000
; surveyed elevations
57-01A	5.190000	8.760000	0.000000	0.000000	0.000000
; surveyed elevations
57-02	7.230000	7.160000	0.000000	0.000000	0.000000
; surveyed elevations
65-01	-5.640000	17.790000	0.000000	0.000000	0.000000
; surveyed elevations
65-28	-4.750000	15.690000	0.000000	0.000000	0.000000
; surveyed elevations
65-29	-3.970000	14.400000	0.000000	0.000000	0.000000
; surveyed elevations
65-30	-2.730000	13.500000	0.000000	0.000000	0.000000
; surveyed elevations
65-31	-1.960000	11.990000	0.000000	0.000000	0.000000
; surveyed elevations
65-32	-0.930000	11.400000	0.000000	0.000000	0.000000
; surveyed elevations
65-33	4.300000	5.420000	0.000000	0.000000	0.000000
; surveyed elevations
65-34	5.370000	5.070000	0.000000	0.000000	0.000000
; surveyed elevations
68-01	3.030000	12.400000	0.000000	0.000000	0.000000
; surveyed elevations
68-A	6.010000	8.240000	0.000000	0.000000	0.000000
; surveyed elevations
68-B	9.510000	3.940000	0.000000	0.000000	0.000000
; surveyed elevations
68-C	8.500000	5.220000	0.000000	0.000000	0.000000
; surveyed elevations
68-D	7.220000	6.610000	0.000000	0.000000	0.000000
69-01	-4.420000	13.870000	0.000000	0.000000	0.000000
; no elev data, estimated values
77-01	1.320000	12.680000	0.000000	0.000000	0.000000
; New Junction
FM-0B	5.750000	2.250000	0.000000	500.000000	0.000000
J-1	6.000000	2.000000	0.000000	500.000000	0.000000
J-100	0.000000	2.000000	0.000000	500.000000	0.000000
J-101	5.760000	6.240000	0.000000	500.000000	0.000000
J-103	5.000000	7.000000	0.000000	500.000000	0.000000
J-104	4.000000	2.000000	0.000000	500.000000	0.000000
J-105	2.000000	2.000000	0.000000	500.000000	0.000000
J-106	8.000000	2.000000	0.000000	500.000000	0.000000
J-108	10.000000	2.000000	0.000000	500.000000	0.000000
J-110	6.000000	2.000000	0.000000	500.000000	0.000000
J-111	10.000000	2.000000	0.000000	500.000000	0.000000
J-112	4.000000	2.000000	0.000000	500.000000	0.000000
J-113	7.000000	5.000000	0.000000	500.000000	0.000000
J-114	2.000000	2.000000	0.000000	500.000000	0.000000
J-115	10.000000	2.000000	0.000000	500.000000	0.000000
J-116	10.000000	2.000000	0.000000	500.000000	0.000000
J-117	10.000000	2.000000	0.000000	500.000000	0.000000
J-118	10.000000	2.000000	0.000000	500.000000	0.000000
J-119	10.000000	2.000000	0.000000	500.000000	0.000000
J-12	12.000000	2.000000	0.000000	500.000000	0.000000
J-120	8.000000	2.000000	0.000000	500.000000	0.000000
J-121	8.000000	2.000000	0.000000	500.000000	0.000000
J-123	8.000000	2.000000	0.000000	500.000000	0.000000
J-124	6.000000	4.000000	0.000000	500.000000	0.000000
J-125	6.000000	2.000000	0.000000	500.000000	0.000000
J-126	4.000000	2.000000	0.000000	500.000000	0.000000
J-127	8.000000	2.000000	0.000000	500.000000	0.000000
J-128	2.000000	2.000000	0.000000	500.000000	0.000000
J-129	10.000000	2.000000	0.000000	500.000000	0.000000
J-131	0.000000	2.000000	0.000000	500.000000	0.000000
J-132	2.000000	4.000000	0.000000	500.000000	0.000000
J-133	12.000000	2.000000	0.000000	500.000000	0.000000
J-134	12.000000	2.000000	0.000000	500.000000	0.000000
J-135	10.000000	2.000000	0.000000	500.000000	0.000000
J-136	10.000000	2.000000	0.000000	500.000000	0.000000
J-137	10.000000	2.000000	0.000000	500.000000	0.000000
J-138	10.000000	2.000000	0.000000	500.000000	0.000000
J-139	12.000000	2.000000	0.000000	500.000000	0.000000
J-14	10.000000	2.000000	0.000000	500.000000	0.000000
J-140	12.000000	2.000000	0.000000	500.000000	0.000000
J-142	12.000000	2.000000	0.000000	500.000000	0.000000
J-143	10.000000	2.000000	0.000000	500.000000	0.000000
J-144	10.000000	2.000000	0.000000	500.000000	0.000000
J-145	10.000000	2.000000	0.000000	500.000000	0.000000
J-146	12.000000	2.000000	0.000000	500.000000	0.000000
J-147	12.000000	2.000000	0.000000	500.000000	0.000000
J-148	12.000000	2.000000	0.000000	500.000000	0.000000
J-149	12.000000	2.000000	0.000000	500.000000	0.000000
J-150	14.000000	2.000000	0.000000	500.000000	0.000000
J-151	14.000000	2.000000	0.000000	500.000000	0.000000
; Sarasota County Flow
J-152	12.000000	2.000000	0.000000	500.000000	0.000000
J-153	12.000000	2.000000	0.000000	500.000000	0.000000
J-154	12.000000	2.000000	0.000000	500.000000	0.000000
J-155	14.000000	2.000000	0.000000	500.000000	0.000000
J-156	14.000000	2.000000	0.000000	500.000000	0.000000
J-157	12.000000	2.000000	0.000000	500.000000	0.000000
J-158	12.000000	2.000000	0.000000	500.000000	0.000000
J-159	0.000000	2.000000	0.000000	500.000000	0.000000
J-160	0.000000	2.000000	0.000000	500.000000	0.000000
J-17	4.000000	2.000000	0.000000	500.000000	0.000000
J-19	8.000000	10.000000	0.000000	500.000000	0.000000
J-2	8.000000	2.000000	0.000000	500.000000	0.000000
J-20	5.000000	3.000000	0.000000	500.000000	0.000000
J-22	10.000000	2.000000	0.000000	500.000000	0.000000
J-23	10.000000	4.000000	0.000000	500.000000	0.000000
J-24	6.000000	2.000000	0.000000	500.000000	0.000000
J-25	6.000000	2.000000	0.000000	500.000000	0.000000
J-26	10.000000	2.000000	0.000000	500.000000	0.000000
J-28	4.000000	2.000000	0.000000	500.000000	0.000000
J-29	10.000000	4.000000	0.000000	500.000000	0.000000
J-3	6.000000	2.000000	0.000000	500.000000	0.000000
J-30	11.000000	3.000000	0.000000	500.000000	0.000000
J-31	12.000000	2.000000	0.000000	500.000000	0.000000
J-32	10.000000	2.000000	0.000000	500.000000	0.000000
J-33	6.000000	2.000000	0.000000	500.000000	0.000000
J-34	10.000000	2.000000	0.000000	500.000000	0.000000
J-35	10.000000	2.000000	0.000000	500.000000	0.000000
J-36	10.000000	2.000000	0.000000	500.000000	0.000000
J-37	10.000000	2.000000	0.000000	500.000000	0.000000
J-38	6.000000	2.000000	0.000000	500.000000	0.000000
J-39	8.000000	2.000000	0.000000	500.000000	0.000000
J-4	6.000000	2.000000	0.000000	500.000000	0.000000
J-40	12.000000	2.000000	0.000000	500.000000	0.000000
J-41	12.000000	2.000000	0.000000	500.000000	0.000000
J-43	2.000000	4.000000	0.000000	500.000000	0.000000
J-46	6.000000	2.000000	0.000000	500.000000	0.000000
J-47	6.000000	2.000000	0.000000	500.000000	0.000000
J-48	12.000000	2.000000	0.000000	500.000000	0.000000
J-49	12.000000	2.000000	0.000000	500.000000	0.000000
J-5	12.000000	2.000000	0.000000	500.000000	0.000000
J-50	11.000000	3.000000	0.000000	500.000000	0.000000
J-51	12.000000	2.000000	0.000000	500.000000	0.000000
J-52	6.000000	2.000000	0.000000	500.000000	0.000000
J-53	10.000000	2.000000	0.000000	500.000000	0.000000
J-54	10.000000	2.000000	0.000000	500.000000	0.000000
J-56	12.000000	2.000000	0.000000	500.000000	0.000000
J-58	12.000000	2.000000	0.000000	500.000000	0.000000
J-59	10.000000	2.000000	0.000000	500.000000	0.000000
J-6	11.000000	5.000000	0.000000	500.000000	0.000000
J-60	6.000000	2.000000	0.000000	500.000000	0.000000
J-61	4.000000	2.000000	0.000000	500.000000	0.000000
J-62	12.000000	2.000000	0.000000	500.000000	0.000000
J-64	12.000000	2.000000	0.000000	500.000000	0.000000
J-66	12.000000	2.000000	0.000000	500.000000	0.000000
J-67	12.000000	2.000000	0.000000	500.000000	0.000000
J-69	10.000000	2.000000	0.000000	500.000000	0.000000
J-70	8.000000	2.000000	0.000000	500.000000	0.000000
J-71	12.000000	2.000000	0.000000	500.000000	0.000000
J-73	4.000000	2.000000	0.000000	500.000000	0.000000
J-75	4.000000	2.000000	0.000000	500.000000	0.000000
J-76	12.000000	2.000000	0.000000	500.000000	0.000000
J-77	10.000000	2.000000	0.000000	500.000000	0.000000
J-78	10.000000	2.000000	0.000000	500.000000	0.000000
J-79	10.000000	2.000000	0.000000	500.000000	0.000000
J-8	10.000000	2.000000	0.000000	500.000000	0.000000
J-80	12.000000	2.000000	0.000000	500.000000	0.000000
J-81	6.000000	2.000000	0.000000	500.000000	0.000000
J-82	12.000000	2.000000	0.000000	500.000000	0.000000
J-83	10.000000	2.000000	0.000000	500.000000	0.000000
J-84	2.000000	2.000000	0.000000	500.000000	0.000000
J-85	12.000000	2.000000	0.000000	500.000000	0.000000
J-86	12.000000	2.000000	0.000000	500.000000	0.000000
J-87	6.000000	2.000000	0.000000	500.000000	0.000000
J-88	10.000000	2.000000	0.000000	500.000000	0.000000
J-89	8.000000	2.000000	0.000000	500.000000	0.000000
J-9	10.000000	2.000000	0.000000	500.000000	0.000000
J-90	8.000000	2.000000	0.000000	500.000000	0.000000
J-91	4.000000	4.000000	0.000000	500.000000	0.000000
J-92	2.000000	2.000000	0.000000	500.000000	0.000000
J-93	0.000000	2.000000	0.000000	500.000000	0.000000
J-94	-7.293425	5.293425	0.000000	500.000000	0.000000
J-95	2.000000	2.000000	0.000000	500.000000	0.000000
J-96	10.000000	2.000000	0.000000	500.000000	0.000000
J-97	10.000000	2.000000	0.000000	500.000000	0.000000
J-98	10.000000	2.000000	0.000000	500.000000	0.000000
J-99	6.000000	2.000000	0.000000	500.000000	0.000000
JCT-122	-8.660000	22.660000	0.000000	500.000000	0.000000
JCT-124	-8.660000	22.660000	0.000000	500.000000	0.000000
JCT-126	-5.410000	0.000000	0.000000	500.000000	0.000000
JCT-128	-5.410000	0.000000	0.000000	500.000000	0.000000
JCT-130	-1.590000	0.000000	0.000000	500.000000	0.000000
JCT-132	-1.590000	0.000000	0.000000	500.000000	0.000000
JCT-134	-1.000000	0.000000	0.000000	500.000000	0.000000
JCT-138	-1.000000	0.000000	0.000000	500.000000	0.000000
JCT-140	-7.170000	0.000000	0.000000	500.000000	0.000000
JCT-142	-7.170000	0.000000	0.000000	500.000000	0.000000
JCT-144	-7.770000	0.000000	0.000000	500.000000	0.000000
JCT-148	-7.770000	0.000000	0.000000	500.000000	0.000000
JCT-150	-9.190000	21.190000	0.000000	500.000000	0.000000
JCT-152	-9.190000	21.190000	0.000000	500.000000	0.000000
JCT-154	-9.000000	0.000000	0.000000	500.000000	0.000000
JCT-156	-9.000000	0.000000	0.000000	500.000000	0.000000
JCT-162	-12.440000	0.000000	0.000000	500.000000	0.000000
JCT-164	-12.440000	0.000000	0.000000	500.000000	0.000000
JCT-166	-14.500000	0.000000	0.000000	500.000000	0.000000
JCT-168	-14.500000	0.000000	0.000000	500.000000	0.000000
JCT-170	1.990000	0.000000	0.000000	500.000000	0.000000
JCT-172	1.990000	0.000000	0.000000	500.000000	0.000000
JCT-176	-8.220000	0.000000	0.000000	500.000000	0.000000
JCT-178	-8.220000	0.000000	0.000000	500.000000	0.000000
JCT-180	0.340000	0.000000	0.000000	500.000000	0.000000
JCT-182	0.340000	0.000000	0.000000	500.000000	0.000000
JCT-184	-8.920000	0.000000	0.000000	500.000000	0.000000
JCT-186	-8.920000	0.000000	0.000000	500.000000	0.000000
JCT-188	-3.170000	0.000000	0.000000	500.000000	0.000000
JCT-190	-3.170000	0.000000	0.000000	500.000000	0.000000
JCT-192	-5.930000	17.930000	0.000000	500.000000	0.000000
JCT-194	-5.930000	17.930000	0.000000	500.000000	0.000000
JCT-196	-5.920000	0.000000	0.000000	500.000000	0.000000
JCT-198	-5.920000	0.000000	0.000000	500.000000	0.000000
JCT-200	-6.500000	0.000000	0.000000	500.000000	0.000000
JCT-202	-6.500000	0.000000	0.000000	500.000000	0.000000
JCT-204	1.220000	0.000000	0.000000	500.000000	0.000000
JCT-206	1.220000	0.000000	0.000000	500.000000	0.000000
JCT-208	-1.870000	0.000000	0.000000	500.000000	0.000000
JCT-210	-1.870000	0.000000	0.000000	500.000000	0.000000
JCT-212	-3.000000	0.000000	0.000000	500.000000	0.000000
JCT-214	-3.000000	0.000000	0.000000	500.000000	0.000000
JCT-216	-2.220000	16.220000	0.000000	500.000000	0.000000
JCT-218	-2.220000	16.220000	0.000000	500.000000	0.000000
JCT-222	-8.150000	0.000000	0.000000	500.000000	0.000000
JCT-224	-8.150000	0.000000	0.000000	500.000000	0.000000
JCT-226	-3.010000	0.000000	0.000000	500.000000	0.000000
JCT-228	-3.010000	0.000000	0.000000	500.000000	0.000000
JCT-230	-3.260000	0.000000	0.000000	500.000000	0.000000
JCT-232	-3.260000	0.000000	0.000000	500.000000	0.000000
JCT-234	-3.620000	0.000000	0.000000	500.000000	0.000000
JCT-236	-3.620000	0.000000	0.000000	500.000000	0.000000
JCT-238	-0.270000	0.000000	0.000000	500.000000	0.000000
JCT-240	-0.270000	0.000000	0.000000	500.000000	0.000000
JCT-242	1.870000	0.000000	0.000000	500.000000	0.000000
JCT-244	1.870000	0.000000	0.000000	1000.000000	0.000000
JCT-246	-2.010000	0.000000	0.000000	500.000000	0.000000
JCT-248	-2.010000	0.000000	0.000000	500.000000	0.000000
JCT-250	-3.430000	17.430000	0.000000	500.000000	0.000000
JCT-252	-3.430000	17.430000	0.000000	500.000000	0.000000
JCT-254	-4.500000	0.000000	0.000000	500.000000	0.000000
JCT-256	-4.500000	0.000000	0.000000	500.000000	0.000000
JCT-258	-4.500000	0.000000	0.000000	500.000000	0.000000
JCT-260	-8.240000	0.000000	0.000000	500.000000	0.000000
JCT-262	-8.240000	0.000000	0.000000	500.000000	0.000000
JCT-264	-3.020000	0.000000	0.000000	500.000000	0.000000
JCT-266	-3.020000	0.000000	0.000000	500.000000	0.000000
JCT-268	-5.920000	0.000000	0.000000	500.000000	0.000000
JCT-270	-5.920000	0.000000	0.000000	500.000000	0.000000
JCT-272	-5.580000	0.000000	0.000000	500.000000	0.000000
JCT-274	-5.580000	0.000000	0.000000	500.000000	0.000000
JCT-276	0.520000	0.000000	0.000000	500.000000	0.000000
JCT-280	0.520000	0.000000	0.000000	500.000000	0.000000
JCT-282	-1.000000	0.000000	0.000000	500.000000	0.000000
JCT-284	-1.000000	0.000000	0.000000	500.000000	0.000000
JCT-286	-10.030000	0.000000	0.000000	500.000000	0.000000
JCT-288	-10.030000	0.000000	0.000000	500.000000	0.000000
JCT-290	-0.190000	0.000000	0.000000	500.000000	0.000000
JCT-292	-0.190000	0.000000	0.000000	500.000000	0.000000
JCT-294	0.010000	0.000000	0.000000	500.000000	0.000000
JCT-296	0.010000	0.000000	0.000000	500.000000	0.000000
JCT-298	0.220000	0.000000	0.000000	500.000000	0.000000
JCT-300	0.220000	0.000000	0.000000	500.000000	0.000000
JCT-302	-4.770000	0.000000	0.000000	500.000000	0.000000
JCT-304	-4.770000	0.000000	0.000000	500.000000	0.000000
JCT-306	-0.560000	0.000000	0.000000	500.000000	0.000000
JCT-308	-0.560000	0.000000	0.000000	500.000000	0.000000
JCT-312	-1.270000	0.000000	0.000000	500.000000	0.000000
JCT-314	-1.270000	0.000000	0.000000	500.000000	0.000000
JCT-316	0.670000	0.000000	0.000000	500.000000	0.000000
JCT-318	0.670000	0.000000	0.000000	500.000000	0.000000
JCT-322	-5.920000	0.000000	0.000000	500.000000	0.000000
JCT-324	-5.920000	0.000000	0.000000	500.000000	0.000000
JCT-326	-12.120000	0.000000	0.000000	500.000000	0.000000
JCT-328	-12.120000	0.000000	0.000000	500.000000	0.000000
JCT-330	-2.840000	0.000000	0.000000	500.000000	0.000000
JCT-332	-2.840000	0.000000	0.000000	500.000000	0.000000
JCT-334	-4.980000	14.980000	0.000000	500.000000	0.000000
JCT-336	-4.980000	14.980000	0.000000	500.000000	0.000000
JCT-338	-10.090000	0.000000	0.000000	500.000000	0.000000
JCT-340	-10.090000	0.000000	0.000000	500.000000	0.000000
JCT-342	-5.000000	0.000000	0.000000	500.000000	0.000000
JCT-344	-5.000000	0.000000	0.000000	500.000000	0.000000
JCT-346	-5.260000	0.000000	0.000000	500.000000	0.000000
JCT-348	-5.260000	0.000000	0.000000	500.000000	0.000000
JCT-350	-1.460000	0.000000	0.000000	500.000000	0.000000
JCT-352	-1.460000	0.000000	0.000000	500.000000	0.000000
JCT-354	-7.180000	0.000000	0.000000	500.000000	0.000000
JCT-356	-7.180000	0.000000	0.000000	500.000000	0.000000
JCT-358	-2.840000	0.000000	0.000000	500.000000	0.000000
JCT-360	-2.840000	0.000000	0.000000	500.000000	0.000000
JCT-362	-5.300000	0.000000	0.000000	500.000000	0.000000
JCT-364	-5.300000	0.000000	0.000000	500.000000	0.000000
JCT-366	-9.000000	0.000000	0.000000	500.000000	0.000000
JCT-370	-9.000000	0.000000	0.000000	500.000000	0.000000
JCT-372	-7.840000	0.000000	0.000000	500.000000	0.000000
JCT-374	-7.840000	0.000000	0.000000	500.000000	0.000000
JCT-376	-4.350000	0.000000	0.000000	500.000000	0.000000
JCT-380	-4.350000	0.000000	0.000000	500.000000	0.000000
JCT-382	-5.140000	0.000000	0.000000	500.000000	0.000000
JCT-384	-5.140000	0.000000	0.000000	500.000000	0.000000
JCT-386	-3.810000	0.000000	0.000000	500.000000	0.000000
JCT-388	-3.810000	0.000000	0.000000	500.000000	0.000000
JCT-390	-6.230000	0.000000	0.000000	500.000000	0.000000
JCT-392	-6.230000	0.000000	0.000000	500.000000	0.000000
JCT-394	-6.890000	0.000000	0.000000	500.000000	0.000000
JCT-396	-6.890000	0.000000	0.000000	500.000000	0.000000
JCT-398	-9.720000	17.720000	0.000000	500.000000	0.000000
JCT-402	-9.720000	17.720000	0.000000	500.000000	0.000000
JCT-404	-9.720000	17.720000	0.000000	500.000000	0.000000
JCT-406	-6.630000	0.000000	0.000000	500.000000	0.000000
JCT-408	-6.630000	0.000000	0.000000	500.000000	0.000000
JCT-410	-6.500000	0.000000	0.000000	500.000000	0.000000
JCT-412	-6.500000	0.000000	0.000000	500.000000	0.000000
JCT-414	-1.800000	0.000000	0.000000	500.000000	0.000000
JCT-416	-1.800000	0.000000	0.000000	500.000000	0.000000
JCT-418	-10.580000	0.000000	0.000000	500.000000	0.000000
JCT-420	-10.580000	0.000000	0.000000	500.000000	0.000000
JCT-422	-15.550000	0.000000	0.000000	500.000000	0.000000
JCT-424	-15.550000	0.000000	0.000000	500.000000	0.000000
JCT-426	-8.500000	0.000000	0.000000	500.000000	0.000000
JCT-428	-8.500000	0.000000	0.000000	500.000000	0.000000
JCT-430	-7.500000	0.000000	0.000000	500.000000	0.000000
JCT-432	-7.500000	0.000000	0.000000	500.000000	0.000000
JCT-434	-3.000000	0.000000	0.000000	500.000000	0.000000
JCT-436	-3.000000	0.000000	0.000000	500.000000	0.000000
JCT-438	-5.490000	23.490000	0.000000	500.000000	0.000000
JCT-440	-5.490000	23.490000	0.000000	500.000000	0.000000
JCT-442	-4.290000	0.000000	0.000000	500.000000	0.000000
JCT-444	-4.290000	0.000000	0.000000	500.000000	0.000000
JCT-446	-5.130000	13.130000	0.000000	500.000000	0.000000
JCT-448	-5.130000	13.130000	0.000000	500.000000	0.000000
JCT-450	-13.050000	0.000000	0.000000	500.000000	0.000000
JCT-452	-13.050000	0.000000	0.000000	500.000000	0.000000
JCT-454	-6.320000	0.000000	0.000000	500.000000	0.000000
JCT-456	-6.320000	0.000000	0.000000	500.000000	0.000000
JCT-458	0.610000	15.390000	0.000000	500.000000	0.000000
JCT-460	0.610000	15.390000	0.000000	500.000000	0.000000
JCT-462	-6.500000	0.000000	0.000000	500.000000	0.000000
JCT-464	-6.500000	0.000000	0.000000	500.000000	0.000000
JCT-466	10.370000	3.630000	0.000000	500.000000	0.000000
JCT-468	10.370000	3.630000	0.000000	1000.000000	0.000000
JCT-470	-0.700000	0.000000	0.000000	500.000000	0.000000
JCT-472	-0.700000	0.000000	0.000000	500.000000	0.000000
JCT-474	-5.910000	0.000000	0.000000	500.000000	0.000000
JCT-476	-5.910000	0.000000	0.000000	500.000000	0.000000
JCT-478	-7.850000	9.850000	0.000000	500.000000	0.000000