[TITLE]
Scenario Run :  BASE
 SW 1 0 20

[OPTIONS]
;Option and Files Scenario Set: BASE, Base Simulation Options
FLOW_UNITS	CFS
INFILTRATION	HORTON
FLOW_ROUTING	DYNWAVE
ALLOW_PONDING	NO
DRY_DAYS	0.000000
SKIP_STEADY_STATE 	NO
IGNORE_RAINFALL	NO
IGNORE_SNOWMELT	NO
IGNORE_GROUNDWATER	NO
IGNORE_QUALITY	NO
FORCE_MAIN_EQUATION	H-W
LINK_OFFSETS	DEPTH
MIN_SLOPE	0.000000
START_DATE	02/22/2002
START_TIME	00:00
END_DATE	02/24/2002
END_TIME	00:00
REPORT_START_DATE	02/22/2002
REPORT_START_TIME	00:00
SWEEP_START	01/01
SWEEP_END	12/31
WET_STEP	00:05:00
DRY_STEP	01:00:00
ROUTING_STEP	30
REPORT_STEP	00:01:40
INERTIAL_DAMPING	NONE
VARIABLE_STEP	0.750000
MINIMUM_STEP	0.5
LENGTHENING_STEP	0
MIN_SURFAREA	12.566000
NORMAL_FLOW_LIMITED	BOTH
MAX_TRIALS	4
HEAD_TOLERANCE	0.005000

[FILES]
SAVE RUNOFF	"C:\swmm_crada_files\OUTPUT.MST"

[RAINGAGES]

[HYDROGRAPHS]

[EVAPORATION]
CONSTANT	0.100000
DRY_ONLY	NO

[TEMPERATURE]

[ADJUSTMENTS]

[SUBCATCHMENTS]

[SUBAREAS]

[INFILTRATION]

[AQUIFERS]

[GROUNDWATER]

[GWF]

[SNOWPACKS]

[JUNCTIONS]
10309	101.600000	9.400000	0.000000	0.000000	0.000000
16009	102.000000	18.000000	0.000000	0.000000	0.000000
16109	102.800000	22.200000	0.000000	0.000000	0.000000
; *    JUNCTION DATA
80408	124.600000	13.400000	0.000000	0.000000	0.000000
80608	118.300000	16.700000	0.000000	0.000000	0.000000
81009	128.200000	8.800000	0.000000	0.000000	0.000000
81309	117.500000	12.500000	0.000000	0.000000	0.000000
82309	112.300000	42.700000	0.000000	0.000000	0.000000
; New Junction
NODE-1	0.000000	0.000000	0.000000	0.000000	0.000000
; New Junction
NODE-11	0.000000	0.000000	0.000000	0.000000	0.000000
; New Junction
NODE-3	0.000000	0.000000	0.000000	0.000000	0.000000
; New Junction
NODE-5	0.000000	0.000000	0.000000	0.000000	0.000000
; New Junction
NODE-7	0.000000	0.000000	0.000000	0.000000	0.000000
; New Junction
NODE-9	0.000000	0.000000	0.000000	0.000000	0.000000

[OUTFALLS]
10208	89.900000	FREE	NO

[DIVIDERS]

[STORAGE]
15009	111.500000	10.000000	0.000000	FUNCTIONAL	100.000000	0.000000	0.000000	0.000000	0.000000

[CONDUITS]
; 1030
1030	10309	10208	4500.000000	0.016000	0.000000	0.000000	0.000000	0.000000
; 1570
1570	15009	NODE-11	1264.149612	0.015400	0.000000	0.000000	0.000000	0.000000
; 1600
1600	16009	16109	500.000000	0.015000	0.000000	0.000000	0.000000	0.000000
; 1602
1602	82309	NODE-5	1183.086903	0.034000	0.000000	0.000000	0.000000	0.000000
; 1630
1630	16009	10309	300.000000	0.015000	0.000000	0.000000	0.000000	0.000000
; 8040
8040	80408	NODE-1	1032.889550	0.015000	0.000000	0.000000	0.000000	0.000000
; 8060
8060	80608	NODE-3	1239.867181	0.015000	0.000000	2.200000	0.000000	0.000000
; 8100
8100	81009	NODE-7	997.162032	0.015000	0.000000	0.000000	0.000000	0.000000
; 8130
8130	81309	NODE-9	1204.650005	0.015000	0.000000	0.000000	0.000000	0.000000
; CDT-11
A	80408	80608	500.000000	0.010000	0.000000	0.000000	0.000000	0.000000
; CDT-13
B	80608	82309	1800.000000	0.015000	0.000000	0.000000	0.000000	0.000000
; CDT-15
C	81009	81309	1800.000000	0.015000	0.000000	0.000000	0.000000	0.000000
; CDT-17
D	81309	15009	1800.000000	0.015000	0.000000	0.000000	0.000000	0.000000
; CDT-19
E	15009	16009	1800.000000	0.015000	0.000000	0.000000	0.000000	0.000000
; CDT-21
F	16009	10309	1800.000000	0.015000	0.000000	0.000000	0.000000	0.000000
; CDT-23
G	82309	16109	1800.000000	0.015000	0.000000	0.000000	0.000000	0.000000
; New Conduit
H	NODE-1	80608	1619.755240	0.015000	0.000000	0.000000	0.000000	0.000000
; New Conduit
I	NODE-3	82309	1265.428891	0.015000	0.000000	2.200000	0.000000	0.000000
; New Conduit
J	NODE-5	16109	1280.603603	0.034000	0.000000	0.000000	0.000000	0.000000
; New Conduit
K	NODE-7	81309	1424.394987	0.015000	0.000000	0.000000	0.000000	0.000000
; New Conduit
L	NODE-9	15009	1384.834474	0.015000	0.000000	0.000000	0.000000	0.000000
; New Conduit
M	NODE-11	16009	1220.226287	0.015400	0.000000	0.000000	0.000000	0.000000

[PUMPS]

[ORIFICES]

[WEIRS]

[XSECTIONS]
1030	TRIANGULAR	9.000000	54.000000	0.000000	0.000000	1	0
1570	CIRCULAR	5.500000	0.000000	0.000000	0.000000	1	0
1600	CIRCULAR	6.000000	0.000000	0.000000	0.000000	1	0
1602	CIRCULAR	5.000000	0.000000	0.000000	0.000000	1	0
1630	TRIANGULAR	9.000000	54.000000	0.000000	0.000000	1	0
8040	CIRCULAR	4.000000	0.000000	0.000000	0.000000	1	0
8060	CIRCULAR	4.000000	0.000000	0.000000	0.000000	1	0
8100	CIRCULAR	4.500000	0.000000	0.000000	0.000000	1	0
8130	CIRCULAR	4.500000	0.000000	0.000000	0.000000	1	0
A	CIRCULAR	4.000000	0.000000	0.000000	0.000000	1	0
B	CIRCULAR	4.000000	0.000000	0.000000	0.000000	1	0
C	CIRCULAR	4.000000	0.000000	0.000000	0.000000	1	0
D	CIRCULAR	4.000000	0.000000	0.000000	0.000000	1	0
E	CIRCULAR	4.000000	0.000000	0.000000	0.000000	1	0
F	CIRCULAR	4.000000	0.000000	0.000000	0.000000	1	0
G	CIRCULAR	4.000000	0.000000	0.000000	0.000000	1	0
H	CIRCULAR	4.000000	0.000000	0.000000	0.000000	1	0
I	CIRCULAR	4.000000	0.000000	0.000000	0.000000	1	0
J	CIRCULAR	5.000000	0.000000	0.000000	0.000000	1	0
K	CIRCULAR	4.500000	0.000000	0.000000	0.000000	1	0
L	CIRCULAR	4.500000	0.000000	0.000000	0.000000	1	0
M	CIRCULAR	5.500000	0.000000	0.000000	0.000000	1	0

[TRANSECTS]

[LOSSES]
1030	0.000000	0.000000	0.000000	NO	0.000000
1570	0.000000	0.000000	0.000000	NO	0.000000
1600	0.000000	0.000000	0.000000	NO	0.000000
1602	0.000000	0.000000	0.000000	NO	0.000000
1630	0.000000	0.000000	0.000000	NO	0.000000
8040	0.000000	0.000000	0.000000	NO	0.000000
8060	0.000000	0.000000	0.000000	NO	0.000000
8100	0.000000	0.000000	0.000000	NO	0.000000
8130	0.000000	0.000000	0.000000	NO	0.000000
A	0.000000	0.000000	0.000000	NO	0.000000
B	0.000000	0.000000	0.000000	NO	0.000000
C	0.000000	0.000000	0.000000	NO	0.000000
D	0.000000	0.000000	0.000000	NO	0.000000
E	0.000000	0.000000	0.000000	NO	0.000000
F	0.000000	0.000000	0.000000	NO	0.000000
G	0.000000	0.000000	0.000000	NO	0.000000
H	0.000000	0.000000	0.000000	NO	0.000000
I	0.000000	0.000000	0.000000	NO	0.000000
J	0.000000	0.000000	0.000000	NO	0.000000
K	0.000000	0.000000	0.000000	NO	0.000000
L	0.000000	0.000000	0.000000	NO	0.000000
M	0.000000	0.000000	0.000000	NO	0.000000

[CONTROLS]

[POLLUTANTS]

[LANDUSES]

[COVERAGES]

[BUILDUP]

[WASHOFF]

[TREATMENT]

[INFLOWS]

[DWF]
80408	FLOW	40.000000	"HOURLY"	""	""	""
81009	FLOW	50.000000	"HOURLY"	""	""	""
82309	FLOW	50.000000	"HOURLY"	""	""	""

[RDII]

[LOADINGS]

[CURVES]

[TIMESERIES]

[PATTERNS]
; 
HOURLY	HOURLY	0.500000	0.600000	0.700000	0.800000	0.900000
HOURLY	1.000000	1.100000	1.200000	1.300000	1.400000
HOURLY	1.500000	1.400000	1.300000	1.200000	1.100000
HOURLY	1.000000	0.900000	0.800000	0.700000	0.600000
HOURLY	0.500000	0.400000	0.500000	0.600000

[REPORT]
;Report Option Set: BASE, Base Simulation Report
INPUT YES
CONTINUITY YES
FLOWSTATS YES
CONTROLS NO
SUBCATCHMENTS  ALL
NODES  ALL
LINKS  ALL

[COORDINATES]
10208	-578.950000	4947.370000
10309	389.470000	2421.050000
15009	4978.950000	2421.050000
16009	2494.740000	2421.050000
16109	2494.740000	7536.840000
80408	10115.790000	7536.840000
80608	7463.160000	7536.840000
81009	9989.470000	2421.050000
81309	7568.420000	2421.050000
82309	4957.890000	7536.840000
NODE-1	9082.909481	7532.520751
NODE-11	3714.881871	2435.402945
NODE-3	6223.305988	7542.554448
NODE-5	3775.084050	7562.621841
NODE-7	8992.606213	2445.436642
NODE-9	6363.777738	2425.369249


[POLYGONS]

[VERTICES]

A	9604.661698	6860.263088
B	7467.484350	7502.419662
B	6092.867934	6549.218497
C	9042.774695	3358.503020
D	6423.979917	3298.300842
E	3504.174245	3318.368235
F	1136.221879	1773.178978
G	3765.050353	6609.420676

[SYMBOLS]

[MAP]
DIMENSIONS	-1113.687000	1483.706835	10650.527000	7852.093984

