[TITLE]
;;Project Title/Notes
Charlottesville  Virginia Stormwater Study
2-YR SCS DESIGN STORM w/ Current Land Use (2007)
Charlottesville Virginia Stormwater Study
2007 Hydraulics Extran Model
$EXTRAN

[OPTIONS]
;;Option             Value
FLOW_UNITS           CFS
INFILTRATION         GREEN_AMPT
FLOW_ROUTING         DYNWAVE
LINK_OFFSETS         DEPTH
MIN_SLOPE            0
ALLOW_PONDING        YES
SKIP_STEADY_STATE    NO

START_DATE           01/30/2007
START_TIME           00:00:00
REPORT_START_DATE    01/30/2007
REPORT_START_TIME    00:00:00
END_DATE             01/31/2007
END_TIME             01:00:00
SWEEP_START          01/01
SWEEP_END            12/31
DRY_DAYS             0
REPORT_STEP          00:03:00
WET_STEP             00:00:06
DRY_STEP             02:00:00
ROUTING_STEP         0:00:01 

INERTIAL_DAMPING     NONE
NORMAL_FLOW_LIMITED  FROUDE
FORCE_MAIN_EQUATION  H-W
VARIABLE_STEP        0.75
LENGTHENING_STEP     1
MIN_SURFAREA         10
MAX_TRIALS           0
HEAD_TOLERANCE       0
SYS_FLOW_TOL         5
LAT_FLOW_TOL         5
MINIMUM_STEP         0.5
THREADS              1

[EVAPORATION]
;;Data Source    Parameters
;;-------------- ----------------
CONSTANT         0.0
DRY_ONLY         NO

[RAINGAGES]
;;Name           Format    Interval SCF      Source    
;;-------------- --------- ------ ------ ----------
GAGE1            INTENSITY 0.10000  1.0      TIMESERIES RainSeries1     

[SUBCATCHMENTS]
;;Name           Rain Gage        Outlet           Area     %Imperv  Width    %Slope   CurbLen  SnowPack        
;;-------------- ---------------- ---------------- -------- -------- -------- -------- -------- ----------------
70151            GAGE1            1015             57.94    13.48    1300     10.5     0                        
70191            GAGE1            1019             58.545   7.86     1350     8.8      0                        
70231            GAGE1            1023             11.95    62.53    600      3.4      0                        
70291            GAGE1            1029             7.03     47.65    300      4.7      0                        
70311            GAGE1            1031             8.114    63.17    500      2.3      0                        
70531            GAGE1            1053             25.588   26.08    450      4.5      0                        
70571            GAGE1            1057             26.944   54.61    1250     3.4      0                        
70731            GAGE1            1073             40.582   50.29    860      4.1      0                        
70751            GAGE1            1075             19.529   45.7     750      2.9      0                        
70771            GAGE1            1077             5.934    41.44    375      5.7      0                        
70851            GAGE1            1085             20.632   24.42    550      10       0                        
70951            GAGE1            1095             22.652   29.26    1100     6        0                        
71051            GAGE1            1105             15.566   37.56    750      5.1      0                        
71171            GAGE1            1117             49.705   18.59    1250     6.1      0                        
71191            GAGE1            1119             32.956   24.88    850      13.4     0                        
71231            GAGE1            1123             15.949   49.16    550      5.7      0                        
71251            GAGE1            1125             13.022   33.87    500      4.5      0                        
71271            GAGE1            1127             12.081   65.61    600      4.3      0                        
71341            GAGE1            1134             7.256    43.53    500      2.5      0                        
71361            GAGE1            1136             7.509    55.9     550      2.5      0                        
71391            GAGE1            1139             34.858   44.49    1000     9.4      0                        
71461            GAGE1            1146             19.704   38.83    700      4.8      0                        
71491            GAGE1            1149             12.69    52.71    500      1.1      0                        
71611            GAGE1            1161             14.805   41.91    550      6        0                        
71651            GAGE1            1165             13.817   32.54    900      3.1      0                        
71661            GAGE1            1166             35.762   50.61    600      3.3      0                        
71771            GAGE1            1177             22.183   34.64    600      6.2      0                        
71911            GAGE1            1191             54.831   19.02    950      7.4      0                        
71981            GAGE1            1198             31.035   42.56    600      4.8      0                        
71991            GAGE1            1199             18.981   29.91    600      5.2      0                        
72021            GAGE1            1202             17.843   30.21    550      5.2      0                        
72031            GAGE1            1203             15.548   74.82    700      2.9      0                        
72051            GAGE1            1205             20.277   34.06    850      9.6      0                        
72061            GAGE1            1206             21.278   64.93    650      5        0                        
72071            GAGE1            1207             15.693   27.82    1750     7.4      0                        
72091            GAGE1            1209             29.591   74.47    1800     4        0                        
72121            GAGE1            1212             31.278   26.75    1350     7.5      0                        
72161            GAGE1            1216             29.462   15.87    900      2.7      0                        
72191            GAGE1            1219             14.473   78.58    750      3.8      0                        
72231            GAGE1            1223             25.199   76.08    1150     3        0                        
72241            GAGE1            1224             40.616   24.91    1000     7.1      0                        
72261            GAGE1            1226             170.26   9.73     2600     11.2     0                        
72311            GAGE1            1231             123.188  11.18    2000     8        0                        
72331            GAGE1            1233             19.463   13.37    800      7.5      0                        
72371            GAGE1            1237             46.32    15.7     950      4.6      0                        
72391            GAGE1            1239             23.656   40.51    1100     6.5      0                        
72411            GAGE1            1241             54.022   16.39    2150     3        0                        
72421            GAGE1            1242             14.65    13.47    350      6.4      0                        
72551            GAGE1            1255             38.268   17.25    1000     7.4      0                        
72591            GAGE1            1259             21.359   21.65    850      5.2      0                        
72631            GAGE1            1263             21.856   50.02    1200     3.8      0                        
72671            GAGE1            1267             23.225   32.5     700      5.2      0                        
72731            GAGE1            1273             21.913   56.33    750      3.6      0                        
72781            GAGE1            1278             37.878   37.33    900      7.8      0                        
72901            GAGE1            1290             53.293   23.28    2100     9        0                        
72951            GAGE1            1295             40.99    30.24    1950     15       0                        
73001            GAGE1            1300             92.254   16.2     1800     4.3      0                        
73081            GAGE1            1308             35.16    40.21    1600     4.6      0                        
73121            GAGE1            1312             34.02    30.29    350      4.4      0                        
73171            GAGE1            1317             15.553   62.16    1100     3.5      0                        
73181            GAGE1            1318             14.372   75.06    300      3.1      0                        
73201            GAGE1            1320             21.183   57.63    650      2.2      0                        
73211            GAGE1            1321             30.595   36.81    800      5.8      0                        
73271            GAGE1            1327             36.308   25.42    1250     5.5      0                        
73301            GAGE1            1330             31.68    45.83    500      3.4      0                        
73321            GAGE1            1332             14.447   73.24    650      2.4      0                        
73341            GAGE1            1334             15.939   22.65    750      9.2      0                        
73391            GAGE1            1339             17.503   30.3     1600     13       0                        
73401            GAGE1            1340             49.999   10.34    1150     5        0                        
73421            GAGE1            1342             15.446   75.35    1400     2.8      0                        
73461            GAGE1            1346             16.255   77.86    1000     1.2      0                        
73501            GAGE1            1350             157.631  17.83    1700     4.4      0                        
73531            GAGE1            1353             15.557   65.32    650      5        0                        
73551            GAGE1            1355             13.848   66.63    650      3.3      0                        
73571            GAGE1            1357             8.463    71.2     350      1.1      0                        
73601            GAGE1            1360             495.297  16.4     2800     2.2      0                        
73602            GAGE1            1360             386.494  18.64    2950     3        0                        
73631            GAGE1            1363             70.386   17.42    2400     14       0                        
73661            GAGE1            1366             18.667   21.62    750      5.5      0                        
73671            GAGE1            1367             20.142   27.39    1000     5.1      0                        
73691            GAGE1            1369             17.755   28.77    700      7.4      0                        
73751            GAGE1            1375             48.949   25.2     1150     10       0                        
73811            GAGE1            1381             32.509   29.77    1000     7.6      0                        
73841            GAGE1            1384             30.225   25.65    1350     9.8      0                        
73871            GAGE1            1387             24.172   24.75    950      7.6      0                        
73911            GAGE1            1391             37.183   21.44    1500     8.1      0                        
73931            GAGE1            1393             28.419   17.5     850      8.2      0                        
73951            GAGE1            1395             16.223   32.73    850      5.5      0                        
73971            GAGE1            1397             18.881   31.85    550      6.8      0                        
73991            GAGE1            1399             24.259   30.33    1100     5.5      0                        
74081            GAGE1            1408             83.906   13.68    1200     3.5      0                        
74101            GAGE1            1410             39.157   19.77    1150     6        0                        
74151            GAGE1            1415             123.687  9.3      2550     3.9      0                        

[SUBAREAS]
;;Subcatchment   N-Imperv   N-Perv     S-Imperv   S-Perv     PctZero    RouteTo    PctRouted 
;;-------------- ---------- ---------- ---------- ---------- ---------- ---------- ----------
70151            0.011      0.3        0.1        0.2        25         OUTLET    
70191            0.011      0.3        0.1        0.2        25         OUTLET    
70231            0.011      0.3        0.1        0.2        25         OUTLET    
70291            0.011      0.3        0.1        0.2        25         OUTLET    
70311            0.011      0.3        0.1        0.2        25         OUTLET    
70531            0.011      0.3        0.1        0.2        25         OUTLET    
70571            0.011      0.3        0.1        0.2        25         OUTLET    
70731            0.011      0.3        0.1        0.2        25         OUTLET    
70751            0.011      0.3        0.1        0.2        25         OUTLET    
70771            0.011      0.3        0.1        0.2        25         OUTLET    
70851            0.011      0.3        0.1        0.2        25         OUTLET    
70951            0.011      0.3        0.1        0.2        25         OUTLET    
71051            0.011      0.3        0.1        0.2        25         OUTLET    
71171            0.011      0.3        0.1        0.2        25         OUTLET    
71191            0.011      0.3        0.1        0.2        25         OUTLET    
71231            0.011      0.3        0.1        0.2        25         OUTLET    
71251            0.011      0.3        0.1        0.2        25         OUTLET    
71271            0.011      0.3        0.1        0.2        25         OUTLET    
71341            0.011      0.3        0.1        0.2        25         OUTLET    
71361            0.011      0.3        0.1        0.2        25         OUTLET    
71391            0.011      0.3        0.1        0.2        25         OUTLET    
71461            0.011      0.3        0.1        0.2        25         OUTLET    
71491            0.011      0.3        0.1        0.2        25         OUTLET    
71611            0.011      0.3        0.1        0.2        25         OUTLET    
71651            0.011      0.3        0.1        0.2        25         OUTLET    
71661            0.011      0.3        0.1        0.2        25         OUTLET    
71771            0.011      0.3        0.1        0.2        25         OUTLET    
71911            0.011      0.3        0.1        0.2        25         OUTLET    
71981            0.011      0.3        0.1        0.2        25         OUTLET    
71991            0.011      0.3        0.1        0.2        25         OUTLET    
72021            0.011      0.3        0.1        0.2        25         OUTLET    
72031            0.011      0.3        0.1        0.2        25         OUTLET    
72051            0.011      0.3        0.1        0.2        25         OUTLET    
72061            0.011      0.3        0.1        0.2        25         OUTLET    
72071            0.011      0.3        0.1        0.2        25         OUTLET    
72091            0.011      0.3        0.1        0.2        25         OUTLET    
72121            0.011      0.3        0.1        0.2        25         OUTLET    
72161            0.011      0.3        0.1        0.2        25         OUTLET    
72191            0.011      0.3        0.1        0.2        25         OUTLET    
72231            0.011      0.3        0.1        0.2        25         OUTLET    
72241            0.011      0.3        0.1        0.2        25         OUTLET    
72261            0.011      0.3        0.1        0.2        25         OUTLET    
72311            0.011      0.3        0.1        0.2        25         OUTLET    
72331            0.011      0.3        0.1        0.2        25         OUTLET    
72371            0.011      0.3        0.1        0.2        25         OUTLET    
72391            0.011      0.3        0.1        0.2        25         OUTLET    
72411            0.011      0.3        0.1        0.2        25         OUTLET    
72421            0.011      0.3        0.1        0.2        25         OUTLET    
72551            0.011      0.3        0.1        0.2        25         OUTLET    
72591            0.011      0.3        0.1        0.2        25         OUTLET    
72631            0.011      0.3        0.1        0.2        25         OUTLET    
72671            0.011      0.3        0.1        0.2        25         OUTLET    
72731            0.011      0.3        0.1        0.2        25         OUTLET    
72781            0.011      0.3        0.1        0.2        25         OUTLET    
72901            0.011      0.3        0.1        0.2        25         OUTLET    
72951            0.011      0.3        0.1        0.2        25         OUTLET    
73001            0.011      0.3        0.1        0.2        25         OUTLET    
73081            0.011      0.3        0.1        0.2        25         OUTLET    
73121            0.011      0.3        0.1        0.2        25         OUTLET    
73171            0.011      0.3        0.1        0.2        25         OUTLET    
73181            0.011      0.3        0.1        0.2        25         OUTLET    
73201            0.011      0.3        0.1        0.2        25         OUTLET    
73211            0.011      0.3        0.1        0.2        25         OUTLET    
73271            0.011      0.3        0.1        0.2        25         OUTLET    
73301            0.011      0.3        0.1        0.2        25         OUTLET    
73321            0.011      0.3        0.1        0.2        25         OUTLET    
73341            0.011      0.3        0.1        0.2        25         OUTLET    
73391            0.011      0.3        0.1        0.2        25         OUTLET    
73401            0.011      0.3        0.1        0.2        25         OUTLET    
73421            0.011      0.3        0.1        0.2        25         OUTLET    
73461            0.011      0.3        0.1        0.2        25         OUTLET    
73501            0.011      0.3        0.1        0.2        25         OUTLET    
73531            0.011      0.3        0.1        0.2        25         OUTLET    
73551            0.011      0.3        0.1        0.2        25         OUTLET    
73571            0.011      0.3        0.1        0.2        25         OUTLET    
73601            0.011      0.3        0.1        0.2        25         OUTLET    
73602            0.011      0.3        0.1        0.2        25         OUTLET    
73631            0.011      0.3        0.1        0.2        25         OUTLET    
73661            0.011      0.3        0.1        0.2        25         OUTLET    
73671            0.011      0.3        0.1        0.2        25         OUTLET    
73691            0.011      0.3        0.1        0.2        25         OUTLET    
73751            0.011      0.3        0.1        0.2        25         OUTLET    
73811            0.011      0.3        0.1        0.2        25         OUTLET    
73841            0.011      0.3        0.1        0.2        25         OUTLET    
73871            0.011      0.3        0.1        0.2        25         OUTLET    
73911            0.011      0.3        0.1        0.2        25         OUTLET    
73931            0.011      0.3        0.1        0.2        25         OUTLET    
73951            0.011      0.3        0.1        0.2        25         OUTLET    
73971            0.011      0.3        0.1        0.2        25         OUTLET    
73991            0.011      0.3        0.1        0.2        25         OUTLET    
74081            0.011      0.3        0.1        0.2        25         OUTLET    
74101            0.011      0.3        0.1        0.2        25         OUTLET    
74151            0.011      0.3        0.1        0.2        25         OUTLET    

[INFILTRATION]
;;Subcatchment   Suction    Ksat       IMD       
;;-------------- ---------- ---------- ----------
70151            7.02       0.28       0.17      
70191            5.53       0.49       0.2       
70231            7.64       0.13       0.15      
70291            8.19       0.08       0.15      
70311            6.5        0.24       0.16      
70531            5.85       0.3        0.17      
70571            3.5        0.52       0.19      
70731            3.63       0.51       0.19      
70751            6.93       0.2        0.16      
70771            8.22       0.08       0.15      
70851            5.91       0.35       0.18      
70951            8.22       0.08       0.15      
71051            8.19       0.08       0.15      
71171            4.23       0.82       0.24      
71191            3.97       0.71       0.22      
71231            3.5        0.52       0.19      
71251            3.5        0.52       0.19      
71271            4.27       0.45       0.19      
71341            7.81       0.12       0.15      
71361            8.22       0.08       0.15      
71391            4.52       0.43       0.18      
71461            7.52       0.15       0.15      
71491            3.5        0.52       0.19      
71611            6.18       0.27       0.17      
71651            3.89       0.48       0.19      
71661            3.5        0.52       0.19      
71771            5.8        0.32       0.17      
71911            3.99       0.72       0.22      
71981            3.5        0.52       0.19      
71991            5.74       0.34       0.18      
72021            4.04       0.51       0.19      
72031            3.5        0.52       0.19      
72051            6.94       0.23       0.17      
72061            3.5        0.52       0.19      
72071            5.58       0.35       0.18      
72091            3.56       0.52       0.19      
72121            6.73       0.25       0.17      
72161            4.47       0.44       0.19      
72191            4.43       0.43       0.18      
72231            4.66       0.41       0.18      
72241            4.36       0.45       0.19      
72261            4.29       0.84       0.24      
72311            4.3        0.85       0.24      
72331            4.33       0.86       0.25      
72371            4.33       0.86       0.25      
72391            5.65       0.32       0.17      
72411            4.88       0.45       0.19      
72421            4.17       0.79       0.24      
72551            3.61       0.57       0.2       
72591            3.5        0.52       0.19      
72631            5.5        0.33       0.17      
72671            3.5        0.52       0.19      
72731            4.36       0.44       0.18      
72781            5.53       0.35       0.18      
72901            6.06       0.31       0.17      
72951            3.88       0.49       0.19      
73001            3.96       0.71       0.22      
73081            3.5        0.52       0.19      
73121            3.61       0.57       0.2       
73171            3.5        0.52       0.19      
73181            3.5        0.52       0.19      
73201            3.51       0.52       0.19      
73211            5.15       0.39       0.18      
73271            5.01       0.4        0.18      
73301            3.93       0.57       0.2       
73321            3.54       0.52       0.19      
73341            4.03       0.48       0.19      
73391            4.55       0.43       0.19      
73401            4.11       0.76       0.23      
73421            4.5        0.44       0.19      
73461            3.5        0.52       0.19      
73501            4.04       0.73       0.23      
73531            4.63       0.43       0.18      
73551            4.63       0.43       0.18      
73571            3.5        0.52       0.19      
73601            4.35       0.72       0.23      
73602            4.25       0.62       0.21      
73631            3.81       0.54       0.2       
73661            3.5        0.52       0.19      
73671            3.5        0.52       0.19      
73691            3.68       0.51       0.19      
73751            3.6        0.52       0.19      
73811            3.5        0.52       0.19      
73841            3.5        0.52       0.19      
73871            3.5        0.52       0.19      
73911            3.5        0.52       0.19      
73931            3.58       0.55       0.2       
73951            3.5        0.52       0.19      
73971            3.5        0.52       0.19      
73991            3.5        0.52       0.19      
74081            4.89       0.61       0.21      
74101            3.75       0.5        0.19      
74151            4.51       0.72       0.23      

[JUNCTIONS]
;;Name           Elevation  MaxDepth   InitDepth  SurDepth   Aponded   
;;-------------- ---------- ---------- ---------- ---------- ----------
1015             566.1      8.9        0          0          400000    
1019             580        25         0          0          400000    
1025             546.93     21.1       0          0          400000    
1029             561        15         0          0          400000    
1031             536.8      29.2       0          0          400000    
1035             535        19         0          0          400000    
1041             528        20         0          0          400000    
1043             520.3      9.7        0          0          400000    
1047             518.5      9.5        0          200        0         
1049             516        8          0          200        0         
1057             509.5      9.5        0          200        0         
1061             508.09     10.65      0          0          400000    
1065             506.3      6.7        0          0          400000    
1073             492        12         0          0          400000    
1075             505        12         0          0          400000    
1077             493.9      4.1        0          0          400000    
1079             485.02     6.96       0          0          400000    
1085             558        8          0          0          400000    
1087             552        4          0          0          400000    
1089             532        4          0          0          400000    
1091             529        5          0          0          400000    
1095             519        3          0          0          400000    
1097             517        3          0          0          400000    
1099             509        3          0          0          400000    
1103             507        3          0          0          400000    
1105             504        4          0          0          400000    
1117             565.5      5.5        0          0          400000    
1119             532.9      3.1        0          0          400000    
1123             518.2      18.8       0          0          400000    
1127             509.5      10         0          0          400000    
1129             505        9          0          0          400000    
1130             497        7          0          0          400000    
1136             487.84     7.16       0          0          400000    
1139             484.18     7.82       1.58       0          400000    
1140             484.1      7.15       1.66       0          400000    
1142             480        6          0          0          400000    
1144             479.5      5.5        0          0          400000    
1145             479        6          0          0          400000    
1146             477        7          0          0          400000    
1149             507        12         0          0          400000    
1151             501.6      14.4       0          0          400000    
1158             496.3      5.7        0          0          400000    
1159             496        4.5        0          0          400000    
1161             485        15         0          0          400000    
1164             476.5      7.5        0          0          400000    
1165             475        17         0          0          400000    
1166             470.75     17.25      0          0          400000    
1177             479.2      11.8       0          0          400000    
1191             500        6          0          0          400000    
1193             491        5          0          0          400000    
1195             480        8          0          0          400000    
1198             463.57     22.6       0          0          400000    
1199             469.4      18.6       0          0          400000    
1201             460        24         0          200        0         
1202             488        8          0          0          400000    
1203             455.5      23.5       0          0          400000    
1205             494        6          0          0          400000    
1206             475.5      12.5       0          0          400000    
1207             464        26         0          0          400000    
1209             451.66     14.48      0          200        0         
1212             484        16         0          0          400000    
1216             448        8          0          0          400000    
1219             443.2      22.8       0          0          400000    
1223             430        12         0          200        0         
1224             426.26     9.21       0          0          400000    
1226             514        16         0          0          400000    
1227             510        20         0          0          400000    
1228             505        30         0          0          400000    
1229             500        35         0          0          400000    