[TITLE]
;;Project Title/Notes
Metropolitan Sewer District of Greater Cincinnati - SWM Project
RUNOFF Input for Middle Mill Creek Sewershed MMC-003 and MMC-014
MSD System Wide Model - Mill Creek Middle Mill - Sewershed 03-14
Calibration 1
;  CDM SWMM4 Converter

[OPTIONS]
;;Option             Value
FLOW_UNITS           CFS
INFILTRATION         HORTON
FLOW_ROUTING         DYNWAVE
LINK_OFFSETS         DEPTH
MIN_SLOPE            0
ALLOW_PONDING        NO
SKIP_STEADY_STATE    NO

START_DATE           05/07/2001
START_TIME           00:00:00
REPORT_START_DATE    05/07/2001
REPORT_START_TIME    00:00:00
END_DATE             05/09/2001
END_TIME             00:00:00
SWEEP_START          1/1
SWEEP_END            12/31
DRY_DAYS             0
REPORT_STEP          00:05:00
WET_STEP             00:15:00
DRY_STEP             00:15:00
ROUTING_STEP         0:00:05 

INERTIAL_DAMPING     PARTIAL
NORMAL_FLOW_LIMITED  SLOPE
FORCE_MAIN_EQUATION  H-W
VARIABLE_STEP        0.75
LENGTHENING_STEP     0
MIN_SURFAREA         0
MAX_TRIALS           0
HEAD_TOLERANCE       0
SYS_FLOW_TOL         5
LAT_FLOW_TOL         5
MINIMUM_STEP         0.5
THREADS              1

[EVAPORATION]
;;Data Source    Parameters
;;-------------- ----------------
CONSTANT         0.0
DRY_ONLY         NO

[RAINGAGES]
;;Name           Format    Interval SCF      Source    
;;-------------- --------- ------ ------ ----------
GAGE1            VOLUME    0.08333  1.0      TIMESERIES SERIES1         
GAGE2            VOLUME    0.08333  1.0      TIMESERIES SERIES1         

[SUBCATCHMENTS]
;;Name           Rain Gage        Outlet           Area     %Imperv  Width    %Slope   CurbLen  SnowPack        
;;-------------- ---------------- ---------------- -------- -------- -------- -------- -------- ----------------
;Name	RAINGAGE	OUTLET	AREA	%IMPERV	WIDTH	SLOPE
;===============================================================================
MMC003C0001      GAGE1            40203030         5        39.38    0        382      0                        
MMC003C0002      GAGE1            40202021         45       35.84    984.5    308      0                        
MMC003C0003      GAGE1            40203022         4        29.01    41087.88 0        0                        
MMC003C0004      GAGE1            40203008         2        33.22    720.72   691      0                        
MMC003C0005      GAGE1            40203001         0        77.88    0        223      0                        
MMC003C0006      GAGE1            40203010         3        26.95    483.26   255      0                        
MMC003C0007      GAGE1            40203009         0        80       0        0        0                        
MMC003C0008      GAGE1            40203003         0        79.42    0        353      0                        
MMC003C0009      GAGE1            40203005         0        72.46    0        276      0                        
MMC003C0010      GAGE1            40202021         2        35.53    385.8    352      0                        
MMC003C0011      GAGE1            40203004         2        25.32    585.48   320      0                        
MMC003C0012      GAGE1            40202008         3        42.59    383.67   235      0                        
MMC003C0013      GAGE1            40202032         5        39.3     396.39   474      0                        
MMC003C0014      GAGE1            40202031         2        31.91    450.63   266      0                        
MMC003C0015      GAGE1            40202003         2        58.96    0        0        0                        
MMC003C0016      GAGE1            40203020         3        49.68    402.62   350      0                        
MMC003C0017      GAGE1            40203023         3        49.45    261      390      0                        
MMC003C0018      GAGE1            40206007         9        21.23    7524.57  104      0                        
MMC003C0019      GAGE1            40206002         3        21       350.69   283      0                        
MMC003C0020      GAGE1            40206002         2        21       220.88   195      0                        
MMC003C0021      GAGE1            40207016         2        21.74    283.83   311      0                        
MMC003C0022      GAGE1            40202028         1        29.17    0        0        0                        
MMC003C0023      GAGE1            40202027         0        73.56    0        323      0                        
MMC003C0024      GAGE1            40202026         1        48       595.64   307      0                        
MMC003C0025      GAGE1            40202024         1        55.56    1067.78  0        0                        
MMC003C0026      GAGE1            40202025         1        48       191.04   0        0                        
MMC003C0027      GAGE1            40202016         1        55.47    302.91   277      0                        
MMC003C0028      GAGE1            40210003         6        21       331.16   233      0                        
MMC003C0029      GAGE1            40207008         7        21.23    579.98   240      0                        
MMC003C0030      GAGE1            40207011         5        21       525.8    286      0                        
MMC003C0031      GAGE1            40207007         0        48.04    0        328      0                        
MMC003C0032      GAGE1            40207007         2        21       738.14   432      0                        
MMC003C0033      GAGE1            40207006         2        22.47    740.52   267      0                        
MMC003C0034      GAGE1            40202012         2        40.93    272.07   315      0                        
MMC003C0035      GAGE1            40202011         0        72.1     0        229      0                        
MMC003C0036      GAGE1            40202010         1        69.32    298.2    212      0                        
MMC003C0037      GAGE1            40202030         1        60.61    313.4    269      0                        
MMC003C0038      GAGE1            40210002         4        21.98    804.24   180      0                        
MMC003C0039      GAGE1            40207003         4        79.92    619.1    237      0                        
MMC003C0040      GAGE1            40207001         6        79.18    1485.89  113      0                        
MMC003C0041      GAGE1            40202005         5        77.29    700.61   132      0                        
MMC003C0042      GAGE1            40201008         9        47.72    1536.35  273      0                        
MMC003C0043      GAGE1            40201014         13       77.45    2354.45  0        0                        
MMC003C0044      GAGE1            40201011         12       79.18    898.65   145      0                        
MMC003C0045      GAGE1            40208005         4        63.44    1007.39  125      0                        
MMC003C0046      GAGE1            40209001         18       57.76    2937.93  71       0                        
MMC003C0047      GAGE1            40209003         3        32.27    760.86   49       0                        
MMC003C0048      GAGE1            40201003         9        75       2690.18  86       0                        
MMC003C0049      GAGE1            40208002         3        55.41    511.82   40       0                        
MMC003C0050      GAGE1            40208004         2        79.39    351.81   0        0                        
MMC003C0051      GAGE1            38105015         2        65.24    654.75   41       0                        
MMC003C0052      GAGE1            40201004         1        70.8     19945.05 27       0                        
MMC003C0053      GAGE1            40208001         1        75.46    159.62   39       0                        
MMC003C0054      GAGE1            40201001         3        75       413.93   112      0                        
MMC003C0055      GAGE1            38104006         2        70.5     0        0        0                        
MMC003C0056      GAGE1            38105026         3        54.42    257.42   0        0                        
MMC003C0057      GAGE1            38104006         3        65.19    1074.9   454      0                        
MMC003C0058      GAGE1            40201017         7        76.08    531.96   0        0                        
MMC003C0059      GAGE1            40201016         8        78.65    450.03   297      0                        
MMC003C0060      GAGE1            40201017         7        77.99    2656.14  0        0                        
MMC003C0061      GAGE1            38104003         6        70.58    416.03   313      0                        
MMC003C0062      GAGE1            38013019         7        80       1258.55  226      0                        
MMC003C0063      GAGE1            38013018         5        79.98    798.15   93       0                        
MMC003C0064      GAGE1            38013017         3        57.11    403.25   0        0                        
MMC003C0065      GAGE1            38013014         3        51.68    732.77   247      0                        
MMC003C0066      GAGE1            38013003         4        74.48    43961.52 0        0                        
MMC003C0067      GAGE1            38013008         0        50.4     0        363      0                        
MMC003C0068      GAGE1            38013016         0        57.94    0        82       0                        
MMC003C0069      GAGE1            38013014         1        53.1     0        0        0                        
MMC003C0070      GAGE1            38013012         0        48       0        143      0                        
MMC003C0071      GAGE1            38013014         0        48.22    0        95       0                        
MMC003C0072      GAGE1            38013011         0        59.08    0        0        0                        
MMC003C0073      GAGE1            38013013         1        78.73    0        0        0                        
MMC003C0074      GAGE1            38013013         4        80       995.45   0        0                        
MMC003C0075      GAGE1            38013009         2        83.83    571.16   38       0                        
MMC003C0076      GAGE1            38013013         2        80.09    0        0        0                        
MMC003C0077      GAGE1            38014004         4        84.77    2756.43  0        0                        
MMC003C0078      GAGE1            38014005         5        84.77    1294.07  21       0                        
MMC003C0079      GAGE1            38013012         0        49.18    0        0        0                        
MMC003C0080      GAGE1            38013010         0        64       0        0        0                        
MMC003C0081      GAGE1            38013013         2        84.76    312.99   69       0                        
MMC003C0082      GAGE1            38104016         5        84.81    751.74   83       0                        
MMC003C0083      GAGE1            38104006         2        56.37    748.62   159      0                        
MMC003C0084      GAGE1            38104004         8        53.79    966.92   93       0                        
MMC003C0085      GAGE1            38112029         3        27.29    42675.2  0        0                        
MMC003C0086      GAGE1            38112030         4        38.86    4761.36  61       0                        
MMC003C0087      GAGE1            38113026         4        48.82    603.75   91       0                        
MMC003C0088      GAGE1            38113029         2        55.16    30759.09 89       0                        
MMC003C0089      GAGE1            38113030         9        77.22    144026.45 0        0                        
MMC003C0090      GAGE1            38113013         6        21.03    360.26   50       0                        
MMC003C0091      GAGE1            38113015         10       31.69    932.99   38       0                        
MMC003C0092      GAGE1            38113011         12       22.16    415.8    33       0                        
MMC003C0093      GAGE1            38113034         3        23.18    509.97   0        0                        
MMC003C0094      GAGE1            38112013         4        21.91    295.31   28       0                        
MMC003C0095      GAGE1            38111018         8        21       547.95   71       0                        
MMC003C0096      GAGE1            38111017         5        21       483.3    112      0                        
MMC003C0097      GAGE1            38113022         1        85       133.44   75       0                        
MMC003C0098      GAGE1            38113009         2        49.32    1902.08  108      0                        
MMC003C0099      GAGE1            38113011         2        21.03    0        0        0                        
MMC003C0100      GAGE1            38113008         0        72       0        178      0                        
MMC003C0101      GAGE1            38113005         1        84.25    32015.28 0        0                        
MMC003C0102      GAGE1            38112016         2        84.43    638.16   223      0                        
MMC003C0103      GAGE1            38112026         0        56.05    0        0        0                        
MMC003C0104      GAGE1            38112013         2        45.15    1063.67  12       0                        
MMC003C0105      GAGE1            38112016         1        84.72    577.49   0        0                        
MMC003C0106      GAGE1            38112002         5        23.59    3069.75  186      0                        
MMC003C0107      GAGE1            38112009         1        21       111.81   200      0                        
MMC003C0108      GAGE1            38112008         2        26.4     166.01   1086     0                        
MMC003C0109      GAGE1            38112022         2        52.46    430.8    106      0                        
MMC003C0110      GAGE1            38112023         3        35.31    292.74   0        0                        
MMC003C0111      GAGE1            38112019         4        34.15    348.21   0        0                        
MMC003C0112      GAGE1            38105023         5        34.57    403.22   0        0                        
MMC003C0113      GAGE1            38105019         5        39.44    27509.73 0        0                        
MMC003C0114      GAGE1            38112018         2        53.52    425.07   73       0                        
MMC003C0115      GAGE1            38105024         2        52.86    446.96   244      0                        
MMC003C0116      GAGE1            38105006         2        31.2     301.16   84       0                        
MMC003C0117      GAGE1            38105004         2        29.57    315.51   249      0                        
MMC003C0118      GAGE1            38105020         2        55.08    361.71   181      0                        
MMC003C0119      GAGE1            38105007         7        52.22    0        0        0                        
MMC003C0120      GAGE1            38105007         1        75.91    96.72    250      0                        
MMC003C0121      GAGE1            38105002         1        78.48    44.91    0        0                        
MMC003C0122      GAGE1            38105013         0        48       0        658      0                        
MMC003C0123      GAGE1            38104001         8        57.19    1109.7   86       0                        
MMC003C0124      GAGE1            38106023         14       22.02    653.33   66       0                        
MMC003C0125      GAGE1            38106011         3        22.96    228.92   310      0                        
MMC003C0126      GAGE1            38105001         0        85       0        0        0                        
MMC003C0127      GAGE1            38104001         5        84.9     667.59   176      0                        
MMC003C0128      GAGE1            38106012         3        63.68    433.35   24       0                        
MMC003C0129      GAGE1            38103019         22       80.18    2247.66  79       0                        
MMC003C0130      GAGE1            38103018         4        84.61    964.77   24       0                        
MMC003C0131      GAGE1            38103017         2        80.88    131.28   98       0                        
MMC003C0132      GAGE1            38103017         1        61.55    143.12   338      0                        
MMC003C0133      GAGE1            38103014         14       46.73    720.99   166      0                        
MMC003C0134      GAGE1            38102014         8        71.18    1067.3   0        0                        
MMC003C0135      GAGE1            38103014         2        72.91    377.57   19       0                        
MMC003C0136      GAGE1            38103012         1        85       637.5    0        0                        
MMC003C0137      GAGE1            38103003         20       81.91    2174.1   23       0                        
MMC003C0138      GAGE1            38102001         0        999      0        114      0                        
MMC003C0139      GAGE1            38102003         1        78.39    117.84   138      0                        
MMC003C0140      GAGE1            38102005         3        79.49    380.84   167      0                        
MMC003C0141      GAGE1            38102006         0        72.07    0        205      0                        
MMC003C0142      GAGE1            38103001         2        71.85    480.12   32       0                        
MMC003C0143      GAGE1            38102014         8        76.33    383.91   0        0                        
MMC003C0144      GAGE1            38102009         3        57.05    419.48   338      0                        
MMC003C0145      GAGE1            38102045         4        80       1519.19  0        0                        
MMC003C0146      GAGE1            38015027         1        80       280.04   18       0                        
MMC003C0147      GAGE1            38015011         4        62.31    10166.81 88       0                        
MMC003C0148      GAGE1            38015014         2        63.73    494.66   86       0                        
MMC003C0149      GAGE1            38102037         5        75.9     318.38   79       0                        
MMC003C0150      GAGE1            38102038         5        70.67    1018.43  79       0                        
MMC003C0151      GAGE1            38015003         9        56.52    1275.92  54       0                        
MMC003C0152      GAGE1            38015004         10       60.3     2259.17  0        0                        
MMC003C0153      GAGE1            38015004         4        40.46    563.64   0        0                        
MMC003C0154      GAGE1            38015002         8        50.73    805.85   25       0                        
MMC003C0155      GAGE1            38016013         9        23.78    2361.77  83       0                        
MMC003C0156      GAGE1            36512028         43       42.72    1595.21  353      0                        
MMC003C0157      GAGE1            38009011         22       999      762.93   184      0                        
MMC003C0158      GAGE1            38009011         7        0.5      637.13   50       0                        
MMC003C0159      GAGE1            38008003         52       1.99     14041.5  0        0                        
MMC003C0160      GAGE1            38009013         19       0.5      2009.94  24       0                        
MMC003C0161      GAGE1            36512021         4        22.03    1071.65  41       0                        
MMC003C0162      GAGE1            36512028         1        21       155.61   546      0                        
MMC003C0163      GAGE1            36512036         4        23.92    373.47   631      0                        
MMC003C0164      GAGE1            36512010         4        30.69    302.88   0        0                        
MMC003C0165      GAGE1            36512004         5        40.72    1044.3   0        0                        
MMC003C0166      GAGE1            36512004         2        74.94    130.88   0        0                        
MMC003C0167      GAGE1            36505008         3        57.73    1097.7   86       0                        
MMC003C0168      GAGE1            36505008         5        64.31    573.77   0        0                        
MMC003C0169      GAGE1            36505017         4        33.06    497.6    245      0                        
MMC003C0170      GAGE1            36505018         1        27.31    337.4    65       0                        
MMC003C0171      GAGE1            36505023         9        0.5      4282.41  29       0                        
MMC003C0172      GAGE1            36505014         3        0.64     0        0        0                        
MMC003C0173      GAGE1            36505010         1        21.17    0        0        0                        
MMC003C0174      GAGE1            36505011         2        0.5      183.47   232      0                        
MMC003C0175      GAGE1            38008002         9        24.27    527.33   389      0                        
MMC003C0176      GAGE1            36504027         6        26.69    302.09   68       0                        
MMC003C0177      GAGE1            36504021         3        31.89    1088.21  77       0                        
MMC003C0178      GAGE1            36504006         3        45.58    1079.07  0        0                        
MMC003C0179      GAGE1            36504006         1        999      59.97    77       0                        
MMC003C0180      GAGE1            36504006         3        42.35    1152.68  95       0                        
MMC003C0181      GAGE1            36613023         5        40.55    293.43   83       0                        
MMC003C0182      GAGE1            36613018         3        61.3     552.62   118      0                        
MMC003C0183      GAGE1            36613014         1        999      165.24   140      0                        
MMC003C0184      GAGE1            36613017         2        53.22    5531.36  0        0                        
MMC003C0185      GAGE1            36613006         10       42.15    389      75       0                        
MMC003C0186      GAGE1            36612022         14       33.06    719.22   66       0                        
MMC003C0187      GAGE1            38001012         3        22.53    187.97   85       0                        
MMC003C0188      GAGE1            37915018         3        31.77    1833.74  46       0                        
MMC003C0189      GAGE1            37916028         1        24.87    336.8    95       0                        
MMC003C0190      GAGE1            38001012         2        30.42    386.36   95       0                        
MMC003C0191      GAGE1            37916020         5        37.95    1091.57  42       0                        
MMC003C0192      GAGE1            37915008         3        26.32    912.72   92       0                        
MMC003C0193      GAGE1            37915010         3        53.35    460.64   92       0                        
MMC003C0194      GAGE1            37915012         2        66.45    858.38   70       0                        
MMC003C0195      GAGE1            37915016         1        83.71    2526.47  0        0                        
MMC003C0196      GAGE1            37916018         1        78.41    164.97   92       0                        
MMC003C0197      GAGE1            37916015         2        30.46    243.41   51       0                        
MMC003C0198      GAGE1            37916010         5        61.78    332.37   74       0                        
MMC003C0199      GAGE1            37916008         1        61.06    2957.52  0        0                        
MMC003C0200      GAGE1            37916012         2        31.63    409.43   185      0                        
MMC003C0201      GAGE1            38001003         2        41.36    228.17   74       0                        
MMC003C0202      GAGE1            38001007         0        59.46    0        41       0                        
MMC003C0203      GAGE1            38001007         2        33.84    542.6    87       0                        
MMC003C0204      GAGE1            38001009         2        24.09    7054.64  0        0                        
MMC003C0205      GAGE1            36504002         2        32.45    267.3    149      0                        
MMC003C0206      GAGE1            36504003         5        25.05    855.5    391      0                        
MMC003C0207      GAGE1            36504003         1        26.29    182.42   146      0                        
MMC003C0208      GAGE1            36504004         2        37.9     307.52   260      0                        
MMC003C0209      GAGE1            36504004         3        45.14    0        0        0                        
MMC003C0210      GAGE1            36613020         4        41.46    819.57   239      0                        
MMC003C0211      GAGE1            36613011         4        40.74    667.73   164      0                        
MMC003C0212      GAGE1            36613003         9        30.21    16385.39 66       0                        
MMC003C0213      GAGE1            36505021         1        35.02    111.11   0        0                        
MMC003C0214      GAGE1            36504039         3        22.16    275.82   121      0                        
MMC003C0215      GAGE1            36505006         1        19.3     195.87   415      0                        
MMC003C0216      GAGE1            36505013         1        9.05     159.32   412      0                        
MMC003C0217      GAGE1            36505021         2        55.6     1567.95  455      0                        
MMC003C0218      GAGE1            36506003         15       26.5     761.55   545      0                        
MMC003C0219      GAGE1            36506003         1        56.53    282.29   0        0                        
MMC003C0220      GAGE1            40203030         2        27.95    706.1    310      0                        
MMC003C0221      GAGE1            40203002         1        48.6     153.84   498      0                        
MMC003C0222      GAGE1            40202022         3        23.45    0        0        0                        
MMC003C0223      GAGE1            40202008         11       36.79    575.61   332      0                        
MMC003C0224      GAGE1            40202003         0        74.81    0        151      0                        
MMC003C0225      GAGE1            37916023         5        34.83    3812.66  41       0                        
MMC003C0226      GAGE1            37909026         3        35.61    0        0        0                        
MMC014C0001      GAGE1            40309015         0.42     105.47   0        151      0                        
MMC014C0002      GAGE1            40309008         5        108.5    784.68   771      0                        
MMC014C0003      GAGE1            42801029         90       28.33    1302.18  359      0                        
MMC014C0004      GAGE1            42816002         4        29.81    0        0        0                        
MMC014C0005      GAGE1            42809009         2        32.2     1299.78  0        0                        
MMC014C0006      GAGE1            42809010         5        53.59    519.6    0        0                        
MMC014C0007      GAGE1            42809008         2        46.53    190.68   244      0                        
MMC014C0008      GAGE1            42809006         1        37.75    367.56   211      0                        
MMC014C0009      GAGE1            42809001         0.44     45.16    0        880      0                        
MMC014C0010      GAGE1            42809003         7        55.41    622.74   495      0                        
MMC014C0011      GAGE1            40312006         7        35.61    521.37   452      0                        
MMC014C0012      GAGE1            40312006         0.21     28.15    0        143      0                        
MMC014C0013      GAGE1            40305009         37       1.13     2258.79  218      0                        
MMC014C0014      GAGE1            40305011         4        19.65    777.21   83       0                        
MMC014C0015      GAGE1            42801026         1        40.12    412.98   1110     0                        
MMC014C0016      GAGE1            42801028         2        38.65    312.3    527      0                        
MMC014C0017      GAGE1            40304025         1        56.52    231.99   384      0                        
MMC014C0018      GAGE1            40304024         3        47.17    407.1    0        0                        
MMC014C0019      GAGE1            40304032         3        33.77    419.52   192      0                        
MMC014C0020      GAGE1            40305007         1        29.4     316.62   0        0                        
MMC014C0021      GAGE1            40304020         1        29.4     5950.98  0        0                        
MMC014C0022      GAGE1            40304019         4        44.42    644.88   790      0                        