[TITLE]

[OPTIONS]
FLOW_UNITS          	CMS
INFILTRATION        	HORTON
FLOW_ROUTING        	DYNWAVE
START_DATE          	01/01/2009
START_TIME          	00:00:00
REPORT_START_DATE   	01/01/2009
REPORT_START_TIME   	00:00:00
END_DATE            	02/01/2009
END_TIME            	00:00:00
SWEEP_START         	1/1
SWEEP_END           	12/31
DRY_DAYS            	0
REPORT_STEP         	00:15:00
WET_STEP            	00:05:00
DRY_STEP            	01:00:00
ROUTING_STEP        	0:00:30 
ALLOW_PONDING       	YES
INERTIAL_DAMPING    	PARTIAL
VARIABLE_STEP       	0.00
LENGTHENING_STEP    	0
MIN_SURFAREA        	0
NORMAL_FLOW_LIMITED 	BOTH
SKIP_STEADY_STATE   	NO
FORCE_MAIN_EQUATION 	D-W
LINK_OFFSETS        	DEPTH
MIN_SLOPE           	0

[EVAPORATION]
;;Type      	Parameters
;;----------	----------
CONSTANT    	0
DRY_ONLY     NO

[JUNCTIONS]
;;              	Invert    	Max.      	Init.     	Surcharge 	Ponded    
;;Name          	Elev.     	Depth     	Depth     	Depth     	Area      
;;--------------	----------	----------	----------	----------	----------
MH137271        	1.516     	4.416     	0         	0         	0         
MH142388        	4.282     	3.137     	0         	0         	0         
MH142389        	3.953     	3.195     	0         	0         	0         
MH142390        	3.627     	3.518     	0         	0         	0         
MH142391        	3.389     	3.765     	0         	0         	0         
MH142392        	4.907     	2.573     	0         	0         	0         
MH142393        	5.331     	2.707     	0         	0         	0         
MH142394        	5.788     	2.951     	0         	0         	0         
MH142398        	7.452     	3.509     	0         	0         	0         
MH142399        	7.638     	4.496     	0         	0         	0         
MH142464        	1.545     	4.082     	0         	0         	0         
MH142465        	1.814     	4.099     	0         	0         	0         
MH142466        	2.128     	4.099     	0         	0         	0         
MH142467        	2.518     	3.593     	0         	0         	0         
MH142468        	2.85      	3.764     	0         	0         	0         
MH142469        	3.149     	3.8       	0         	0         	0         
MH142545        	26.969    	4.243     	0         	0         	0         
MH142546        	28.392    	4.721     	0         	0         	0         
MH142638        	26.777    	3.996     	0         	0         	0         
MH142639        	27.127    	3.542     	0         	0         	0         
MH142640        	27.249    	3.676     	0         	0         	0         
MH142641        	27.313    	3.798     	0         	0         	0         
MH142726        	10.098    	4.154     	0         	0         	0         
MH144047        	17.843    	3.331     	0         	0         	0         
MH144068        	18.014    	5.096     	0         	0         	0         
MH144072        	18.285    	3.847     	0         	0         	0         
MH144073        	18.547    	3.42      	0         	0         	0         
MH144074        	18.98     	3.563     	0         	0         	0         
MH144076        	19.233    	5.047     	0         	0         	0         
MH144079        	19.513    	3.795     	0         	0         	0         
MH144080        	19.882    	3.999     	0         	0         	0         
MH144081        	20.211    	3.582     	0         	0         	0         
MH144082        	20.449    	3.722     	0         	0         	0         
MH144083        	20.522    	3.457     	0         	0         	0         
MH144084        	22.36     	3.222     	0         	0         	0         
MH144092        	22.81     	2.607     	0         	0         	0         
MH147870        	7.818     	5.871     	0         	0         	0         
MH150604        	-5.1209999977	10.7569999977	0         	0         	0         
MH150605        	-5.0599999977	10.5619999977	0         	0         	0         
MH150606        	-4.9619999977	10.4609999977	0         	0         	0         
MH150607        	-4.9069999977	10.6619999977	0         	0         	0         
MH150608        	-4.7879999986	11.0209999986	0         	0         	0         
MH150609        	-4.6449999986	13.6459999986	0         	0         	0         
MH150610        	-4.6209999986	15.4989999986	0         	0         	0         
MH150611        	-4.5019999986	15.8439999986	0         	0         	0         
MH150612        	-4.3399999986	14.1029999986	0         	0         	0         
MH150613        	-4.0229999986	13.1879999986	0         	0         	0         
MH150614        	-3.8249999986	12.5449999986	0         	0         	0         
MH150615        	-3.7159999986	12.0129999986	0         	0         	0         
MH150616        	-3.6089999986	11.9119999986	0         	0         	0         
MH150617        	-3.4929999986	13.2709999986	0         	0         	0         
MH150618        	-3.3619999986	13.6949999986	0         	0         	0         
MH150619        	-3.2059999986	13.1269999986	0         	0         	0         
MH150620        	-3.0629999986	11.0369999986	0         	0         	0         
MH150723        	-4.2249999986	13.2289999986	0         	0         	0         
MH150724        	-4.1209999986	13.5059999986	0         	0         	0         
MH150729        	4.843     	3.96      	0         	0         	0         
MH150730        	4.993     	4.334     	0         	0         	0         
MH150731        	5.105     	4.737     	0         	0         	0         
MH150732        	5.255     	5.279     	0         	0         	0         
MH150733        	5.374     	4.712     	0         	0         	0         
MH150734        	6.818     	3.393     	0         	0         	0         
MH150735        	6.919     	3.31      	0         	0         	0         
MH150736        	7.007     	3.283     	0         	0         	0         
MH150737        	7.102     	3.444     	0         	0         	0         
MH150738        	7.33      	3.969     	0         	0         	0         
MH150739        	7.483     	3.999     	0         	0         	0         
MH150740        	7.538     	3.892     	0         	0         	0         
MH150741        	8.647     	4.286     	0         	0         	0         
MH150742        	9.083     	4.34      	0         	0         	0         
MH150743        	9.208     	5.004     	0         	0         	0         
MH150744        	9.19      	5.041     	0         	0         	0         
MH150745        	10.906    	3.523     	0         	0         	0         
MH150746        	11.409    	3.871     	0         	0         	0         
MH150747        	11.488    	4.505     	0         	0         	0         
MH150748        	11.628    	5.666     	0         	0         	0         
MH150749        	11.899    	6.151     	0         	0         	0         
MH150750        	12.082    	5.353     	0         	0         	0         
MH150751        	12.229    	3.77      	0         	0         	0         
MH150752        	12.369    	4.13      	0         	0         	0         
MH150753        	12.762    	4.255     	0         	0         	0         
MH150754        	12.85     	5.097     	0         	0         	0         
MH150755        	13.021    	3.737     	0         	0         	0         
MH150756        	13.064    	3.953     	0         	0         	0         
MH150757        	13.692    	3.538     	0         	0         	0         
MH150758        	13.823    	3.66      	0         	0         	0         
MH150759        	13.942    	3.636     	0         	0         	0         
MH150760        	14.134    	5.556     	0         	0         	0         
MH150761        	14.923    	4.438     	0         	0         	0         
MH150762        	15.008    	5.273     	0         	0         	0         
MH150763        	15.828    	4.051     	0         	0         	0         
MH150764        	15.999    	5.331     	0         	0         	0         
MH150765        	16.231    	3.538     	0         	0         	0         
MH150766        	16.435    	4.538     	0         	0         	0         
MH150767        	16.749    	3.849     	0         	0         	0         
MH150768        	16.983    	4.441     	0         	0         	0         
MH150769        	17.096    	4.182     	0         	0         	0         
MH150770        	17.157    	4.35      	0         	0         	0         
MH150771        	17.349    	3.856     	0         	0         	0         
MH150772        	18.242    	4.045     	0         	0         	0         
MH150773        	19.589    	4.408     	0         	0         	0         
MH150774        	19.687    	4.676     	0         	0         	0         
MH150775        	20.178    	5.562     	0         	0         	0         
MH150776        	20.364    	3.919     	0         	0         	0         
MH150777        	21.196    	3.95      	0         	0         	0         
MH150778        	21.226    	4.621     	0         	0         	0         
MH150779        	21.47     	4.664     	0         	0         	0         
MH150780        	22.125    	3.96      	0         	0         	0         
MH150781        	22.177    	4.206     	0         	0         	0         
MH150782        	22.272    	5.081     	0         	0         	0         
MH150783        	22.729    	6.346     	0         	0         	0         
MH150784        	22.921    	5.236     	0         	0         	0         
MH150785        	23.079    	7.627     	0         	0         	0         
MH150786        	23.22     	6.394     	0         	0         	0         
MH150787        	23.399    	5.21      	0         	0         	0         
MH150788        	24.991    	3.807     	0         	0         	0         
MH150789        	25.091    	4.203     	0         	0         	0         
MH150790        	26.67     	4.045     	0         	0         	0         
MH150791        	20.108    	1.165     	0         	0         	0         
MH150793        	16.05     	1.63      	0         	0         	0         
MH150795        	12.5      	1.731     	0         	0         	0         
MH150797        	22.82     	5.264     	0         	0         	0         
MH150798        	25.2      	2.904     	0         	0         	0         
MH151625        	16.115    	4.361     	0         	0         	0         
MH151626        	16.807    	4.633     	0         	0         	0         
MH151643        	15.255    	3.347     	0         	0         	0         
MH151644        	15.2      	3.399     	0         	0         	0         
MH151654        	10.412    	5.2       	0         	0         	0         
MH151655        	10.558    	5.453     	0         	0         	0         
MH151656        	10.702    	5.224     	0         	0         	0         
MH151657        	10.878    	4.783     	0         	0         	0         
MH151658        	10.982    	4.548     	0         	0         	0         
MH151659        	11.171    	4.602     	0         	0         	0         
MH151660        	12.073    	4.155     	0         	0         	0         
MH151661        	13.116    	3.474     	0         	0         	0         
MH151662        	13.497    	4.206     	0         	0         	0         
MH151663        	13.649    	3.993     	0         	0         	0         
MH151683        	14.5      	2.105     	0         	0         	0         

[OUTFALLS]
;;              	Invert    	Outfall   	Stage/Table     	Tide
;;Name          	Elev.     	Type      	Time Series     	Gate
;;--------------	----------	----------	----------------	----
MH150863        	0         	FREE      	                	NO

[CONDUITS]
;;              	Inlet           	Outlet          	          	Manning   	Inlet     	Outlet    	Init.     	Max.      
;;Name          	Node            	Node            	Length    	N         	Offset    	Offset    	Flow      	Flow      
;;--------------	----------------	----------------	----------	----------	----------	----------	----------	----------
LS138801        	MH137271        	MH150606        	52.5118605631941	0.012987012987013	1.516     	1.231     	0         	0         
LS144398        	MH142388        	MH142389        	53.5510040778117	0.012987012987013	4.282     	3.965     	0         	0         
LS144399        	MH142389        	MH142390        	47.6348503156539	0.012987012987013	3.953     	3.636     	0         	0         
LS144400        	MH142390        	MH142391        	49.2401776947259	0.012987012987013	3.627     	3.392     	0         	0         
LS144404        	MH142392        	MH142388        	44.5785215791711	0.012987012987013	4.907     	4.343     	0         	0         
LS144405        	MH142393        	MH142392        	31.1014113153632	0.012987012987013	5.331     	4.916     	0         	0         
LS144406        	MH142394        	MH142393        	33.9320751554416	0.012987012987013	5.788     	5.337     	0         	0         
LS144407        	MH142398        	MH142394        	78.2206170528035	0.012987012987013	7.452     	6.614     	0         	0         
LS144408        	MH142399        	MH142398        	54.1921574578951	0.012987012987013	7.638     	7.483     	0         	0         
LS144422        	MH142391        	MH142469        	51.0981685689514	0.012987012987013	3.389     	3.152     	0         	0         
LS144469        	MH142465        	MH142464        	44.6891606863432	0.012987012987013	1.814     	1.561     	0         	0         
LS144470        	MH142466        	MH142465        	53.6581774167141	0.012987012987013	2.128     	1.817     	0         	0         
LS144471        	MH142467        	MH142466        	55.6695058953506	0.012987012987013	2.518     	2.146     	0         	0         
LS144472        	MH142468        	MH142467        	54.22777059587	0.012987012987013	2.85      	2.521     	0         	0         
LS144473        	MH142469        	MH142468        	46.0244234856002	0.012987012987013	3.149     	2.853     	0         	0         
LS144486        	MH142464        	MH137271        	5.65143383224792	0.012987012987013	1.545     	1.516     	0         	0         
LS144554        	MH142546        	MH142545        	62.5253429763589	0.012987012987013	28.392    	28.151    	0         	0         
LS144582        	MH142545        	MH150790        	68.8785453252412	0.012987012987013	26.969    	26.746    	0         	0         
LS144646        	MH142641        	MH142640        	14.7779942441691	0.012987012987013	27.313    	27.277    	0         	0         
LS144647        	MH142640        	MH142639        	41.8366916104568	0.012987012987013	27.249    	27.127    	0         	0         
LS144648        	MH142639        	MH142638        	38.8084812112759	0.012987012987013	27.13     	26.981    	0         	0         
LS144653        	MH142638        	MH150790        	10.2789005566998	0.012987012987013	26.777    	26.728    	0         	0         
LS144733        	MH142726        	MH150743        	33.0823071403882	0.012987012987013	10.098    	9.982     	0         	0         
LS148884        	MH147870        	MH142399        	51.2232725976098	0.012987012987013	7.818     	7.647     	0         	0         
LS151623        	MH150605        	MH150604        	79.5321291574214	0.012987012987013	-5.0599999977	-5.1209999977	0         	0         
LS151624        	MH150606        	MH150605        	104.441924551212	0.012987012987013	-4.9619999977	-5.0349999977	0         	0         
LS151625        	MH150607        	MH150606        	55.549259804852	0.012987012987013	-4.9069999977	-4.9589999977	0         	0         
LS151626        	MH150608        	MH150607        	127.676420637557	0.012987012987013	-4.788    	-4.901    	0         	0         
LS151627        	MH150609        	MH150608        	103.660621435184	0.012987012987013	-4.639999999	-4.789999999	0         	0         
LS151628        	MH150610        	MH150609        	81.2286935061731	0.012987012987013	-4.6209999986	-4.6449999986	0         	0         
LS151629        	MH150611        	MH150610        	110.49437400059	0.012987012987013	-4.5019999986	-4.6119999986	0         	0         
LS151630        	MH150612        	MH150611        	153.927852209148	0.012987012987013	-4.3399999986	-4.4899999986	0         	0         
LS151631        	MH150614        	MH150613        	90.8364777888097	0.012987012987013	-3.8249999986	-3.9289999986	0         	0         
LS151632        	MH150615        	MH150614        	88.6637758076971	0.012987012987013	-3.7159999986	-3.8189999986	0         	0         
LS151633        	MH150616        	MH150615        	96.7620178733504	0.012987012987013	-3.6089999986	-3.7119999986	0         	0         
LS151634        	MH150617        	MH150616        	104.857880127271	0.012987012987013	-3.4929999986	-3.6089999986	0         	0         
LS151635        	MH150618        	MH150617        	99.5130746761594	0.012987012987013	-3.3619999986	-3.4899999986	0         	0         
LS151636        	MH150619        	MH150618        	124.230508523472	0.012987012987013	-3.2059999986	-3.3589999986	0         	0         
LS151637        	MH150620        	MH150619        	115.671491235836	0.012987012987013	-3.0629999986	-3.2029999986	0         	0         
LS151740        	MH150723        	MH150612        	108.61632090225	0.012987012987013	-4.2249999986	-4.3399999986	0         	0         
LS151741        	MH150724        	MH150723        	108.554874220914	0.012987012987013	-4.1209999986	-4.2249999986	0         	0         
LS151742        	MH150613        	MH150724        	98.9863733922764	0.012987012987013	-4.0229999986	-4.1059999986	0         	0         
LS151747        	MH150604        	MH150863        	3.84533910544506	0.012987012987013	-5.1209999977	-5.1299999977	0         	0         
LS151749        	MH150729        	MH150613        	17.5477011628143	0.012987012987013	4.843     	4.813     	0         	0         
LS151750        	MH150730        	MH150729        	81.3776878483074	0.012987012987013	4.993     	4.862     	0         	0         
LS151751        	MH150731        	MH150730        	96.233859579885	0.012987012987013	5.105     	4.999     	0         	0         
LS151752        	MH150732        	MH150731        	97.1118717911656	0.012987012987013	5.255     	5.13      	0         	0         
LS151753        	MH150733        	MH150732        	89.4217542953783	0.012987012987013	5.374     	5.258     	0         	0         
LS151754        	MH150734        	MH150733        	90.4582949163722	0.012987012987013	6.818     	6.693     	0         	0         
LS151755        	MH150735        	MH150734        	66.584760546339	0.012987012987013	6.919     	6.821     	0         	0         
LS151756        	MH150736        	MH150735        	63.0679311740146	0.012987012987013	7.007     	6.922     	0         	0         
LS151757        	MH150737        	MH150736        	57.5467533057009	0.012987012987013	7.102     	7.02      	0         	0         
LS151758        	MH150738        	MH150737        	47.5018047272255	0.012987012987013	7.33      	7.266     	0         	0         
LS151759        	MH150739        	MH150738        	103.008882755894	0.012987012987013	7.483     	7.333     	0         	0         
LS151760        	MH150740        	MH150739        	39.9209408729634	0.012987012987013	7.538     	7.486     	0         	0         
LS151761        	MH150741        	MH150740        	99.7901740212724	0.012987012987013	8.647     	8.476     	0         	0         
LS151762        	MH150742        	MH150741        	101.288219377192	0.012987012987013	9.083     	8.909     	0         	0         
LS151763        	MH150744        	MH150742        	74.7642287720881	0.012987012987013	9.187     	9.086     	0         	0         
LS151764        	MH150743        	MH150744        	8.38666981996851	0.012987012987013	9.208     	9.193     	0         	0         
LS151765        	MH150745        	MH150743        	25.8099925202134	0.012987012987013	10.906    	10.833    	0         	0         
LS151766        	MH150746        	MH150745        	63.0795861357391	0.012987012987013	11.409    	11.278    	0         	0         
LS151767        	MH150747        	MH150746        	45.7246691618389	0.012987012987013	11.488    	11.418    	0         	0         
LS151768        	MH150748        	MH150747        	69.8672743268579	0.012987012987013	11.628    	11.5      	0         	0         
LS151769        	MH150749        	MH150748        	77.9154186814473	0.012987012987013	11.899    	11.738    	0         	0         
LS151770        	MH150750        	MH150749        	84.1000111991397	0.012987012987013	12.082    	11.915    	0         	0         
LS151771        	MH150751        	MH150750        	77.4999068249058	0.012987012987013	12.229    	12.088    	0         	0         
LS151772        	MH150752        	MH150751        	72.5677169016228	0.012987012987013	12.369    	12.232    	0         	0         
LS151773        	MH150753        	MH150752        	50.2882895562124	0.012987012987013	12.76     	12.643    	0         	0         
LS151774        	MH150754        	MH150753        	46.005085988428	0.012987012987013	12.85     	12.762    	0         	0         
LS151775        	MH150755        	MH150754        	42.1449716405146	0.012987012987013	13.021    	12.951    	0         	0         
LS151776        	MH150756        	MH150755        	56.6149415407909	0.012987012987013	13.064    	13.033    	0         	0         
LS151777        	MH150757        	MH150756        	54.7172529105239	0.012987012987013	13.692    	13.57     	0         	0         
LS151778        	MH150758        	MH150757        	53.2137851611547	0.012987012987013	13.823    	13.707    	0         	0         
LS151779        	MH150759        	MH150758        	45.4967782687257	0.012987012987013	13.942    	13.89     	0         	0         
LS151780        	MH150760        	MH150759        	60.6671838591093	0.012987012987013	14.134    	13.954    	0         	0         
LS151781        	MH150761        	MH150760        	54.3548215832703	0.012987012987013	14.923    	14.765    	0         	0         
LS151782        	MH150762        	MH150761        	48.0537183309125	0.012987012987013	15.008    	14.923    	0         	0         
LS151783        	MH150763        	MH150762        	47.7473195939244	0.012987012987013	15.828    	15.709    	0         	0         
LS151784        	MH150764        	MH150763        	46.941012566044	0.012987012987013	15.999    	15.88     	0         	0         
LS151785        	MH150765        	MH150764        	59.9716219956347	0.012987012987013	16.231    	16.051    	0         	0         
LS151786        	MH150766        	MH150765        	57.1072397904315	0.012987012987013	16.435    	16.24     	0         	0         
LS151787        	MH150767        	MH150766        	40.9056930566005	0.012987012987013	16.749    	16.673    	0         	0         
LS151788        	MH150768        	MH150767        	41.2605117370139	0.012987012987013	16.983    	16.785    	0         	0         
LS151789        	MH150769        	MH150768        	51.9535576022214	0.012987012987013	17.096    	17.026    	0         	0         
LS151790        	MH150770        	MH150769        	3.85271567555074	0.012987012987013	17.157    	17.096    	0         	0         
LS151791        	MH150771        	MH150770        	59.4459775244077	0.012987012987013	17.349    	17.197    	0         	0         
LS151792        	MH150772        	MH150771        	95.2518234035378	0.012987012987013	18.242    	18.005    	0         	0         
LS151793        	MH150773        	MH150772        	62.3721618165496	0.012987012987013	19.589    	19.422    	0         	0         
LS151794        	MH150774        	MH150773        	30.2190157539375	0.012987012987013	19.687    	19.596    	0         	0         
LS151795        	MH150775        	MH150774        	50.51976677364	0.012987012987013	20.178    	20.056    	0         	0         
LS151796        	MH150776        	MH150775        	53.136848790867	0.012987012987013	20.364    	20.196    	0         	0         
LS151797        	MH150777        	MH150776        	37.416958515053	0.012987012987013	21.196    	21.129    	0         	0         
LS151798        	MH150778        	MH150777        	19.8288374113192	0.012987012987013	21.226    	21.202    	0         	0         
LS151799        	MH150779        	MH150778        	54.434728819336	0.012987012987013	21.47     	21.302    	0         	0         
LS151800        	MH150780        	MH150779        	50.002837186016	0.012987012987013	22.125    	21.97     	0         	0         
LS151801        	MH150781        	MH150780        	30.2785059894441	0.012987012987013	22.177    	22.125    	0         	0         
LS151802        	MH150782        	MH150781        	40.3710710494998	0.012987012987013	22.272    	22.177    	0         	0         
LS151803        	MH150783        	MH150782        	64.9089675064908	0.012987012987013	22.729    	22.534    	0         	0         
LS151804        	MH150784        	MH150797        	33.1555272209749	0.012987012987013	22.92     	22.82     	0         	0         
LS151805        	MH150785        	MH150784        	55.2313563921501	0.012987012987013	23.079    	22.936    	0         	0         
LS151806        	MH150786        	MH150785        	45.8595919869162	0.012987012987013	23.22     	23.122    	0         	0         
LS151807        	MH150787        	MH150786        	53.6061074454365	0.012987012987013	23.399    	23.256    	0         	0         
LS151808        	MH150788        	MH150787        	20.7273123542959	0.012987012987013	24.991    	24.93     	0         	0         
LS151809        	MH150789        	MH150788        	40.9213812214016	0.012987012987013	25.091    	24.997    	0         	0         
LS151810        	MH150790        	MH150789        	39.7401005755852	0.012987012987013	26.67     	26.521    	0         	0         
LS151812        	MH150769        	MH150791        	2.00013592470485	0.012987012987013	20.178    	20.208    	0         	0         
LS151814        	MH150759        	MH150793        	2.00337487420097	0.012987012987013	16.026    	16.096    	0         	0         
LS151816        	MH150744        	MH150795        	1.99434655291013	0.012987012987013	9.187     	12.805    	0         	0         
LS151818        	MH150797        	MH150798        	1.99999713338706	0.012987012987013	22.82     	25.304    	0         	0         
LS151819        	MH150797        	MH150783        	13.0020930881654	0.012987012987013	22.82     	22.784    	0         	0         
LS152639        	MH151626        	MH151625        	42.1198722845679	0.012987012987013	16.807    	16.136    	0         	0         
LS152656        	MH151625        	MH151643        	50.0295287011289	0.012987012987013	16.115    	15.28     	0         	0         
LS152657        	MH151643        	MH151644        	3.19923389813164	0.012987012987013	15.255    	15.2      	0         	0         
LS152659        	MH151644        	MH151663        	55.0590987455356	0.012987012987013	15.2      	14.286    	0         	0         
LS152667        	MH151654        	MH142726        	88.4720740608627	0.012987012987013	10.412    	10.116    	0         	0         
LS152668        	MH151655        	MH151654        	45.6119843725176	0.012987012987013	10.558    	10.424    	0         	0         
LS152669        	MH151656        	MH151655        	46.9952491003913	0.012987012987013	10.702    	10.564    	0         	0         
LS152670        	MH151657        	MH151656        	46.8783175164311	0.012987012987013	10.878    	10.714    	0         	0         
LS152671        	MH151658        	MH151657        	33.8948560461538	0.012987012987013	10.982    	10.884    	0         	0         
LS152672        	MH151659        	MH151658        	58.354544429454	0.012987012987013	11.171    	10.988    	0         	0         
LS152673        	MH151660        	MH151659        	39.4606470172109	0.012987012987013	12.073    	11.918    	0         	0         
LS152674        	MH151661        	MH151660        	33.5557173770179	0.012987012987013	13.116    	12.978    	0         	0         
LS152675        	MH151662        	MH151661        	58.3312607591502	0.012987012987013	13.497    	13.301    	0         	0         
LS152676        	MH151663        	MH151662        	21.0916922152763	0.012987012987013	13.649    	13.53     	0         	0         
LS152698        	MH151661        	MH151683        	1.99364826371081	0.012987012987013	14.588    	14.81     	0         	0         
LS153167        	MH144047        	MH150771        	47.2352442993042	0.012987012987013	17.843    	17.675    	0         	0         
LS153175        	MH144072        	MH144068        	56.0708229378689	0.012987012987013	18.285    	18.056    	0         	0         
LS153176        	MH144073        	MH144072        	48.0097000972756	0.012987012987013	18.547    	18.343    	0         	0         
LS153177        	MH144074        	MH144073        	17.2850730850891	0.012987012987013	18.98     	18.91     	0         	0         
LS153179        	MH144076        	MH144074        	53.3266024929653	0.012987012987013	19.233    	19.071    	0         	0         
LS153182        	MH144079        	MH144076        	70.4978202183656	0.012987012987013	19.513    	19.303    	0         	0         
LS153183        	MH144080        	MH144079        	14.5957602001204	0.012987012987013	19.882    	19.797    	0         	0         
LS153184        	MH144081        	MH144080        	76.6782113504015	0.012987012987013	20.211    	19.928    	0         	0         
LS153185        	MH144082        	MH144081        	55.076215633344	0.012987012987013	20.449    	20.263    	0         	0         
LS153186        	MH144083        	MH144082        	10.9269877517062	0.012987012987013	20.522    	20.507    	0         	0         
LS153187        	MH144084        	MH144083        	43.2671624266014	0.012987012987013	22.36     	22.183    	0         	0         
LS153195        	MH144092        	MH144084        	42.3463867144288	0.012987012987013	22.808    	22.595    	0         	0         
LS153200        	MH144068        	MH144047        	52.2181260213562	0.012987012987013	18.014    	17.846    	0         	0         

[XSECTIONS]
;;Link          	Shape       	Geom1           	Geom2     	Geom3     	Geom4     	Barrels   
;;--------------	------------	----------------	----------	----------	----------	----------