[TITLE]
Z.IND+FRAZIONI SDF - pozz. 674

[OPTIONS]
FLOW_UNITS           LPS
INFILTRATION         HORTON
FLOW_ROUTING         DYNWAVE
START_DATE           02/07/2014
START_TIME           00:00:00
REPORT_START_DATE    02/07/2014
REPORT_START_TIME    00:00:00
END_DATE             02/08/2014
END_TIME             00:00:00
SWEEP_START          01/01
SWEEP_END            12/31
DRY_DAYS             0
REPORT_STEP          00:00:30
WET_STEP             00:01:00
DRY_STEP             01:00:00
ROUTING_STEP         0:00:10 
ALLOW_PONDING        NO
INERTIAL_DAMPING     NONE
VARIABLE_STEP        0.00
LENGTHENING_STEP     1
MIN_SURFAREA         1
NORMAL_FLOW_LIMITED  BOTH
SKIP_STEADY_STATE    NO
FORCE_MAIN_EQUATION  H-W
LINK_OFFSETS         DEPTH
MIN_SLOPE            0

[EVAPORATION]
;;Type       Parameters
;;---------- ----------
CONSTANT     0.0
DRY_ONLY     NO

[JUNCTIONS]
;;               Invert     Max.       Init.      Surcharge  Ponded    
;;Name           Elev.      Depth      Depth      Depth      Area      
;;-------------- ---------- ---------- ---------- ---------- ----------
8                63.3       0.75       0          0          0         
9                63.08      1.03       0          0          0         
10               62.83      1.13       0          0          0         
11               62.82      0.78       0          0          0         
12               62.24      1.14       0          0          0         
13               62.11      1.65       0          0          0         
14               61.78      1.76       0          0          0         
15               61.53      1.55       0          0          0         
16               61.27      1.36       0          0          0         
17               61         1.53       0          0          0         
26               60.62      1.85       0          0          0         
27               60.25      1.94       0          0          0         
28               60.09      1.91       0          0          0         
29               60.03      1.9        0          0          0         
38               60.15      1.81       0          0          0         
39               60.08      1.81       0          0          0         
30               59.89      1.96       0          0          0         
31               59.82      1.84       0          0          0         
40               59.61      2.05       0          0          0         
32               59.47      1.98       0          0          0         
33               59.22      1.98       0          0          0         
34               59.19      1.71       0          0          0         
35               58.94      1.75       0          0          0         
44               59.08      1.8        0          0          0         
43               59.33      1.76       0          0          0         
42               59.64      1.7        0          0          0         
41               59.78      1.7        0          0          0         
18               60.72      1.22       0          0          0         
19               60.36      1.22       0          0          0         
20               59.89      1.56       0          0          0         
21               59.79      2.02       0          0          0         
22               59.71      2.02       0          0          0         
23               59.75      2.02       0          0          0         
24               59.42      2.15       0          0          0         
36               58.84      1.66       0          0          0         
37               58.49      1.88       0          0          0         
25               58.5       1.85       0          0          0         
46               58.33      1.8        0          0          0         
47               58.15      1.83       0          0          0         
48               57.93      1.9        0          0          0         
49               57.73      1.98       0          0          0         
50               57.62      1.96       0          0          0         
51               57.09      2.31       0          0          0         
112              57.22      2.27       0          0          0         
111              57.47      2.27       0          0          0         
110              57.64      2.28       0          0          0         
109              57.81      2.36       0          0          0         
108              57.96      2.42       0          0          0         
52               56.92      2.4        0          0          0         
53               56.78      2.41       0          0          0         
54               56.55      2.5        0          0          0         
55               56.4       2.5        0          0          0         
56               55.95      2.81       0          0          0         
57               55.88      2.75       0          0          0         
58               55.76      2.74       0          0          0         
59               55.67      2.62       0          0          0         
60               55.66      2.62       0          0          0         
122              55.96      2.34       0          0          0         
121              56.04      2.18       0          0          0         
120              56.06      2.08       0          0          0         
119              56.18      1.87       0          0          0         
118              56.35      1.81       0          0          0         
117              56.55      1.9        0          0          0         
116              56.68      2.13       0          0          0         
115              56.76      2.2        0          0          0         
113              57.91      1.73       0          0          0         
114              56.91      2.4        0          0          0         
61               55.6       2.39       0          0          0         
62               55.4       1.75       0          0          0         
A                62.23      1.26       0          0          0         
665              52.836     1.925      0          0          0         
667              51.173     3.28       0          0          0         
668              52.77      1.89       0          0          0         
669              52.886     1.88       0          0          0         
670              52.992     1.93       0          0          0         
671              53.226     1.88       0          0          0         
672              53.333     1.93       0          0          0         
673              53.469     2.03       0          0          0         
674              53.611     2.33       0          0          0         
701              53.944     2.52       0          0          0         
700              53.892     2.48       0          0          0         
699              53.764     2.4        0          0          0         
675              53.686     2.42       0          0          0         
676              53.784     2.44       0          0          0         
677              53.888     2.45       0          0          0         
678              53.923     2.37       0          0          0         
679              53.986     2.29       0          0          0         
680              54.085     2.25       0          0          0         
681              54.116     2.22       0          0          0         
682              54.311     2.42       0          0          0         
683              54.408     2.8        0          0          0         
684              55.91      1.41       0          0          0         
685              55.944     1.49       0          0          0         
697              56.499     0.85       0          0          0         
686              56.084     1.36       0          0          0         
687              56.184     1.45       0          0          0         
696              56.468     1.24       0          0          0         
688              56.351     1.17       0          0          0         
689              56.427     1.33       0          0          0         
690              56.567     0.95       0          0          0         
694              56.747     0.62       0          0          0         
695              56.777     0.56       0          0          0         
691              56.714     0.93       0          0          0         
692              56.843     0.85       0          0          0         
693              57.007     0.72       0          0          0         
63               54.54      2.2        0          0          0         
64               54.28      2.94       0          0          0         
65               54.09      2.81       0          0          0         
66               53.87      3.1        0          0          0         
67               53.62      2.57       0          0          0         
68               53.43      2.4        0          0          0         
69               53.08      3.04       0          0          0         
70               52.83      2.78       0          0          0         
71               52.19      3          0          0          0         
72               52.16      2.87       0          0          0         
73               51.92      2.97       0          0          0         
74               51.68      3          0          0          0         
75               51.37      3.18       0          0          0         
76               51.29      3.12       0          0          0         
77               51.16      3.26       0          0          0         
78               51.06      3.05       0          0          0         
79               50.98      2.68       0          0          0         
80               50.95      2.69       0          0          0         
81               50.85      2.58       0          0          0         
82               50.7       2.59       0          0          0         
83               50.63      2.46       0          0          0         
84               50.52      2.6        0          0          0         
85               50.41      2.67       0          0          0         
86               50.33      2.6        0          0          0         
87               50.1       3.36       0          0          0         
88               50.03      3.15       0          0          0         
89               49.87      3.41       0          0          0         
90               49.75      2.85       0          0          0         
91               49.72      2.57       0          0          0         
92               49.69      2.65       0          0          0         
93               49.5       2.75       0          0          0         
94               49.39      3.31       0          0          0         
95               49.39      3.55       0          0          0         
96               49.2       3.78       0          0          0         
97               49.13      3.85       0          0          0         
98               49.15      3.9        0          0          0         
99               48.85      2.66       0          0          0         
100              48.63      2.28       0          0          0         
101              48.52      2.23       0          0          0         
102              48.41      2.1        0          0          0         
103              47.65      2.7        0          0          0         
145              47.7       2.3        0          0          0         
104              47.66      3.1        0          0          0         
105              47.66      3.45       0          0          0         
106              47.51      3.57       0          0          0         
143              50.38      2.42       0          0          0         
142              50.46      1.86       0          0          0         
141              50.59      1.52       0          0          0         
140              50.75      1.57       0          0          0         
139              50.04      2.28       0          0          0         
138              50.16      2.17       0          0          0         
137              50.32      2.28       0          0          0         
136              50.54      2.18       0          0          0         
135              50.72      2.38       0          0          0         
134              51.75      1.47       0          0          0         
133              52.01      1.64       0          0          0         
132              52.07      1.8        0          0          0         
131              52.19      1.95       0          0          0         
130              52.43      1.85       0          0          0         
129              52.67      1.42       0          0          0         
128              52.87      1.09       0          0          0         
127              52.97      1.1        0          0          0         
126              53.24      1.35       0          0          0         
125              54.15      1.78       0          0          0         
124              54.96      1.75       0          0          0         
123              55.23      1.28       0          0          0         
C                50.41      1.91       0          0          0         
B                55.23      1.92       0          0          0         

[OUTFALLS]
;;               Invert     Outfall    Stage/Table      Tide
;;Name           Elev.      Type       Time Series      Gate
;;-------------- ---------- ---------- ---------------- ----
ae               55.23      FREE                        NO
an               52.688     FREE                        NO
af               50.32      FREE                        NO
107a             46.957     FREE                        NO

[STORAGE]
;;               Invert   Max.     Init.    Storage    Curve                      Ponded   Evap.   
;;Name           Elev.    Depth    Depth    Curve      Params                     Area     Frac.    Infiltration Parameters
;;-------------- -------- -------- -------- ---------- -------- -------- -------- -------- -------- -----------------------
1                51.173   3.28     0        FUNCTIONAL 20       0        0        0        0       

[CONDUITS]
;;               Inlet            Outlet                      Manning    Inlet      Outlet     Init.      Max.      
;;Name           Node             Node             Length     N          Offset     Offset     Flow       Flow      
;;-------------- ---------------- ---------------- ---------- ---------- ---------- ---------- ---------- ----------
8-9              8                9                42.45      0.013      0          0          0          0         
9-10             9                10               50.3       0.013      0          0          0          0         
10-11            10               11               49.41      0.013      0          0.08       0          0         
11-A             11               A                16.96      0.013      0          0          0          0         
12-A             12               A                2.72       0.013      0          0          0          0         
A-13             A                13               59.19      0.013      0          0          0          0         
13-14            13               14               60.63      0.013      0          0          0          0         
14-15            14               15               60.72      0.013      0          0          0          0         
15-16            15               16               65.74      0.013      0          0          0          0         
16-17            16               17               57.67      0.013      0          0          0          0         
17-18            17               18               55.37      0.013      0          0          0          0         
18-19            18               19               62.55      0.013      0          0          0          0         
19-20            19               20               58.75      0.013      0          0.16       0          0         
20-21            20               21               55.5       0.013      0          0          0          0         
21-22            21               22               14.46      0.013      0          0          0          0         
22-23            22               23               28.91      0.013      0          0          0          0         
23-24            23               24               82.88      0.013      0          0          0          0         
24-25            24               25               72.36      0.013      0          0.67       0          0         
26-27            26               27               68.4       0.013      0          0          0          0         
27-28            27               28               47.22      0.013      0          0          0          0         
28-29            28               29               19.95      0.013      0          0          0          0         
38-39            38               39               37.55      0.013      0          0          0          0         
39-29            39               29               39.93      0.013      0          0.07       0          0         
29-30            29               30               23.41      0.013      0          0          0          0         
30-31            30               31               53.45      0.013      0          0          0          0         
31-32            31               32               52.71      0.013      0          0.02       0          0         
40-32            40               32               21.23      0.013      0          0.01       0          0         
32-33            32               33               43.7       0.013      0          0          0          0         
33-34            33               34               53.43      0.013      0          0          0          0         
34-35            34               35               42.34      0.013      0          0.02       0          0         
41-42            41               42               43.6       0.013      0          0          0          0         
42-43            42               43               54.62      0.013      0          0          0          0         
43-44            43               44               53.46      0.013      0          0          0          0         
44-35            44               35               53.85      0.013      0          0          0          0         
35-36            35               36               42.78      0.013      0          0          0          0         
36-37            36               37               36.43      0.013      0          0.1        0          0         
37-25            37               25               4.93       0.013      0.1        0          0          0         
25-46            25               46               59.62      0.013      0.01       0          0          0         
46-47            46               47               52.43      0.013      0          0          0          0         
47-48            47               48               52.5       0.013      0          0          0          0         
48-49            48               49               48.47      0.013      0          0          0          0         
49-50            49               50               42.79      0.013      0          0          0          0         
50-51            50               51               68.42      0.013      0          0          0          0         
108-109          108              109              47.1       0.013      0          0          0          0         
109-110          109              110              63.12      0.013      0          0          0          0         
110-111          110              111              41.94      0.013      0          0          0          0         
111-112          111              112              51.9       0.013      0          0          0          0         
112-51           112              51               47.37      0.013      0          0.08       0          0         
51-52            51               52               17.42      0.013      0          0          0          0         
52-53            52               53               53.26      0.013      0          0          0          0         
53-54            53               54               46.62      0.013      0          0          0          0         
54-55            54               55               49.57      0.013      0          0          0          0         
55-56            55               56               46.53      0.013      0          0.23       0          0         
56-57            56               57               49.64      0.013      0          0          0          0         
57-58            57               58               46.83      0.013      0          0          0          0         
58-59            58               59               49.83      0.013      0          0          0          0         
59-60            59               60               6.63       0.013      0          0          0          0         
113-114          113              114              45.57      0.0125     0          0.78       0          0         
114-115          114              115              52.31      0.013      0          0          0          0         
115-116          115              116              25.17      0.013      0          0          0          0         
116-117          116              117              52.53      0.013      0          0          0          0         
117-118          117              118              52.51      0.013      0          0.01       0          0         
118-119          118              119              52.63      0.013      0          0          0          0         
119-120          119              120              52.55      0.013      0          0          0          0         
120-121          120              121              58.56      0.013      0          0          0          0         
121-122          121              122              49.53      0.013      0          0          0          0         
122-60           122              60               52.53      0.013      0          0.14       0          0         
60-61            60               61               64.69      0.013      0          0          0          0         
61-62            61               62               62.5       0.013      0          0.05       0          0         
62-ae            62               ae               160.4      0.013      0.05       0          0          0         
693-692          693              692              48.43      0.0125     0          0          0          0         
692-691          692              691              39.86      0.0125     0          0          0          0         
691-690          691              690              40.33      0.0125     0          0.05       0          0         
695-694          695              694              14         0.0125     0          0          0          0         
694-690          694              690              32.04      0.0125     0          0.02       0          0         
690-689          690              689              129.32     0.013      0          0.07       0          0         
689-688          689              688              49.04      0.013      0          0          0          0         
688-687          688              687              49.39      0.013      0          0.03       0          0         
696-687          696              687              37.02      0.013      0          0.09       0          0         
687-686          687              686              45.75      0.013      0          0          0          0         
686-685          686              685              50.23      0.013      0          0          0          0         
697-685          697              685              36.58      0.013      0          0.41       0          0         
685-684          685              684              56.25      0.013      0          0.01       0          0         
684-683          684              683              9.01       0.013      0          1.38       0          0         
683-682          683              682              48.48      0.013      0          0          0          0         
682-681          682              681              52.92      0.013      0          0          0          0         
681-680          681              680              26.35      0.013      0          0          0          0         
680-679          680              679              34.67      0.013      0          0          0          0         
679-678          679              678              30.45      0.013      0          0          0          0         
678-677          678              677              32.07      0.013      0          0          0          0         
677-676          677              676              34.1       0.013      0          0          0          0         
676-675          676              675              33.97      0.013      0          0.01       0          0         
675-674          675              674              29.84      0.013      0          0.01       0          0         
701-700          701              700              17.85      0.013      0          0          0          0         
700-699          700              699              46.38      0.013      0          0          0          0         
699-674          699              674              15.14      0.013      0          0.05       0          0         
674-673          674              673              48.09      0.013      0          0          0          0         
673-672          673              672              49.1       0.013      0          0          0          0         
672-671          672              671              48.97      0.013      0          0          0          0         
671-670          671              670              52.49      0.013      0          0          0          0         
670-669          670              669              49.43      0.013      0          0          0          0         
669-668          669              668              48.8       0.013      0          0          0          0         
668-665          668              665              18.51      0.013      0          0.04       0          0         
665-an           665              an               10.38      0.013      0.15       0          0          0         
665-667          665              1                2.076      0.011      0          1.025      0          0         
62-B             62               B                19.24      0.013      0          0          0          0         
B-63             B                63               78.35      0.013      0          0          0          0         
63-64            63               64               58.67      0.013      0          0          0          0         
64-65            64               65               49.74      0.013      0          0          0          0         
65-66            65               66               52.94      0.013      0          0          0          0         
66-67            66               67               52.55      0.013      0          0          0          0         
67-68            67               68               55.28      0.013      0          0          0          0         
68-69            68               69               67.55      0.013      0          0          0          0         
69-70            69               70               64.64      0.013      0          0          0          0         
70-71            70               71               91.44      0.013      0          0          0          0         
71-72            71               72               33.05      0.013      0          0          0          0         
72-73            72               73               55.82      0.013      0          0          0          0         
73-74            73               74               52.64      0.013      0          0          0          0         
74-75            74               75               55.25      0.013      0          0          0          0         
75-76            75               76               42.83      0.013      0          0          0          0         
76-77            76               77               46.61      0.013      0          0          0          0         
77-78            77               78               52.88      0.013      0          0          0          0         
78-79            78               79               53.02      0.013      0          0          0          0         
79-80            79               80               53.06      0.013      0          0          0          0         
80-81            80               81               49.83      0.013      0          0          0          0         
81-82            81               82               49.74      0.013      0          0          0          0         
82-83            82               83               50.02      0.013      0          0          0          0         
83-84            83               84               55.74      0.013      0          0          0          0         
84-85            84               85               52.91      0.013      0          0          0          0         