[OPTIONS]
;Option and Files Scenario Set: BASE, Base Simulation Options
FLOW_UNITS	LPS
INFILTRATION	HORTON
FLOW_ROUTING	DYNWAVE
ALLOW_PONDING	NO
DRY_DAYS	5.000000
SKIP_STEADY_STATE 	NO
IGNORE_RAINFALL	YES
IGNORE_SNOWMELT	YES
IGNORE_GROUNDWATER	YES
IGNORE_QUALITY	YES
FORCE_MAIN_EQUATION	H-W
LINK_OFFSETS	DEPTH
MIN_SLOPE	0.000000
START_DATE	02/08/2016
START_TIME	00:00
END_DATE	02/10/2016
END_TIME	00:00
REPORT_START_DATE	02/09/2016
REPORT_START_TIME	00:00
SWEEP_START	01/01
SWEEP_END	12/31
WET_STEP	01:00:00
DRY_STEP	23:00:00
ROUTING_STEP	300
REPORT_STEP	00:05:00
INERTIAL_DAMPING	FULL
VARIABLE_STEP	0.500000
MINIMUM_STEP	0.000000
LENGTHENING_STEP	0
MIN_SURFAREA	0.000000
NORMAL_FLOW_LIMITED	BOTH
MAX_TRIALS	4
HEAD_TOLERANCE	0.000100

[FILES]

[RAINGAGES]

[HYDROGRAPHS]

[TEMPERATURE]

[ADJUSTMENTS]

[SUBCATCHMENTS]

[SUBAREAS]

[INFILTRATION]

[AQUIFERS]

[GROUNDWATER]

[GWF]

[SNOWPACKS]

[JUNCTIONS]
103577	37.050000	1.520000	0.000000	0.000000	0.000000
112100	15.270000	1.570000	0.000000	0.000000	0.000000
112101	16.020000	1.560000	0.000000	0.000000	0.000000
112102	17.010000	1.560000	0.000000	0.000000	0.000000
112103	19.390000	1.660000	0.000000	0.000000	0.000000
112104	25.240000	1.660000	0.000000	0.000000	0.000000
112105	15.660000	2.050000	0.000000	0.000000	0.000000
112106	16.200000	1.500000	0.000000	0.000000	0.000000
112107	18.400000	1.710000	0.000000	0.000000	0.000000
112108	20.800000	2.600000	0.000000	0.000000	0.000000
112109	28.090000	1.800000	0.000000	0.000000	0.000000
112110	16.190000	1.820000	0.000000	0.000000	0.000000
112111	16.690000	1.640000	0.000000	0.000000	0.000000
112112	19.680000	1.660000	0.000000	0.000000	0.000000
112113	20.240000	1.660000	0.000000	0.000000	0.000000
112114	24.830000	1.540000	0.000000	0.000000	0.000000
112115	29.030000	2.840000	0.000000	0.000000	0.000000
209342	26.660000	2.020000	0.000000	0.000000	0.000000
210695	23.300000	2.100000	0.000000	0.000000	0.000000
210696	19.020000	1.660000	0.000000	0.000000	0.000000
210697	16.870000	1.660000	0.000000	0.000000	0.000000
210698	17.840000	1.630000	0.000000	0.000000	0.000000
212668	17.590000	1.640000	0.000000	0.000000	0.000000
212669	18.720000	1.570000	0.000000	0.000000	0.000000
212670	22.780000	1.930000	0.000000	0.000000	0.000000
212671	24.930000	2.100000	0.000000	0.000000	0.000000
212672	19.610000	1.870000	0.000000	0.000000	0.000000
212673	18.670000	2.290000	0.000000	0.000000	0.000000
212674	19.110000	1.830000	0.000000	0.000000	0.000000
212675	21.930000	3.440000	0.000000	0.000000	0.000000
212676	24.620000	1.980000	0.000000	0.000000	0.000000
222518	28.860000	2.640000	0.000000	0.000000	0.000000
222519	23.640000	2.330000	0.000000	0.000000	0.000000
222520	24.010000	2.080000	0.000000	0.000000	0.000000
222563	29.300000	2.090000	0.000000	0.000000	0.000000
224964	34.720000	1.620000	0.000000	0.000000	0.000000
224965	33.330000	1.830000	0.000000	0.000000	0.000000
224966	40.590000	2.220000	0.000000	0.000000	0.000000
224967	37.090000	1.610000	0.000000	0.000000	0.000000
224968	32.340000	3.290000	0.000000	0.000000	0.000000
224969	36.560000	1.730000	0.000000	0.000000	0.000000
233987	29.940000	2.800000	0.000000	0.000000	0.000000
233988	31.620000	2.040000	0.000000	0.000000	0.000000
233989	32.750000	1.900000	0.000000	0.000000	0.000000
233990	31.860000	3.700000	0.000000	0.000000	0.000000
233991	31.670000	2.670000	0.000000	0.000000	0.000000
233992	31.610000	2.820000	0.000000	0.000000	0.000000
233993	29.540000	1.720000	0.000000	0.000000	0.000000
245212	29.250000	1.620000	0.000000	0.000000	0.000000
245213	23.350000	2.770000	0.000000	0.000000	0.000000
245214	23.560000	1.720000	0.000000	0.000000	0.000000
245215	27.770000	1.680000	0.000000	0.000000	0.000000
245216	26.350000	2.370000	0.000000	0.000000	0.000000
245217	33.950000	2.070000	0.000000	0.000000	0.000000
245218	33.450000	1.680000	0.000000	0.000000	0.000000
245219	30.770000	1.860000	0.000000	0.000000	0.000000
245220	28.750000	2.980000	0.000000	0.000000	0.000000
245221	27.420000	2.270000	0.000000	0.000000	0.000000
245222	27.030000	1.670000	0.000000	0.000000	0.000000
245223	24.290000	2.970000	0.000000	0.000000	0.000000
245224	23.750000	2.090000	0.000000	0.000000	0.000000
245225	23.270000	1.550000	0.000000	0.000000	0.000000
245226	21.140000	2.130000	0.000000	0.000000	0.000000
245227	20.440000	1.920000	0.000000	0.000000	0.000000
245228	19.150000	2.890000	0.000000	0.000000	0.000000
245229	35.500000	1.590000	0.000000	0.000000	0.000000
245230	34.000000	1.650000	0.000000	0.000000	0.000000
245231	32.650000	1.570000	0.000000	0.000000	0.000000
245232	29.690000	3.120000	0.000000	0.000000	0.000000
245233	28.770000	1.600000	0.000000	0.000000	0.000000
245234	26.840000	1.690000	0.000000	0.000000	0.000000
245235	24.230000	1.710000	0.000000	0.000000	0.000000
245236	22.140000	2.230000	0.000000	0.000000	0.000000
245237	20.130000	2.630000	0.000000	0.000000	0.000000
245238	17.950000	2.750000	0.000000	0.000000	0.000000
245239	17.790000	2.860000	0.000000	0.000000	0.000000
245240	17.650000	2.990000	0.000000	0.000000	0.000000
245241	17.440000	2.780000	0.000000	0.000000	0.000000
245242	17.150000	3.240000	0.000000	0.000000	0.000000
245243	16.940000	3.410000	0.000000	0.000000	0.000000
245244	16.780000	3.260000	0.000000	0.000000	0.000000
245245	16.640000	4.340000	0.000000	0.000000	0.000000
245246	16.530000	4.610000	0.000000	0.000000	0.000000
245247	16.380000	4.320000	0.000000	0.000000	0.000000
245248	14.890000	3.560000	0.000000	0.000000	0.000000
245249	14.960000	3.490000	0.000000	0.000000	0.000000
245250	14.750000	3.210000	0.000000	0.000000	0.000000
245251	15.060000	2.890000	0.000000	0.000000	0.000000
245252	15.250000	2.820000	0.000000	0.000000	0.000000
245253	15.470000	2.620000	0.000000	0.000000	0.000000
245254	15.750000	2.610000	0.000000	0.000000	0.000000
245255	16.020000	2.840000	0.000000	0.000000	0.000000
245256	16.230000	4.470000	0.000000	0.000000	0.000000
245257	19.110000	1.840000	0.000000	0.000000	0.000000
245258	19.640000	3.070000	0.000000	0.000000	0.000000
245259	19.980000	3.440000	0.000000	0.000000	0.000000
245260	20.340000	3.780000	0.000000	0.000000	0.000000
245261	20.640000	3.990000	0.000000	0.000000	0.000000
245262	20.940000	3.430000	0.000000	0.000000	0.000000
245263	21.310000	3.960000	0.000000	0.000000	0.000000
245264	21.860000	3.680000	0.000000	0.000000	0.000000
245265	22.110000	2.510000	0.000000	0.000000	0.000000
245266	22.420000	3.250000	0.000000	0.000000	0.000000
245267	22.710000	3.010000	0.000000	0.000000	0.000000
245268	23.020000	2.680000	0.000000	0.000000	0.000000
245269	31.170000	1.690000	0.000000	0.000000	0.000000
245270	26.600000	2.070000	0.000000	0.000000	0.000000
245271	24.810000	2.260000	0.000000	0.000000	0.000000
245272	23.290000	2.990000	0.000000	0.000000	0.000000
245273	23.480000	2.500000	0.000000	0.000000	0.000000
245274	23.780000	1.870000	0.000000	0.000000	0.000000
259162	24.640000	2.480000	0.000000	0.000000	0.000000
259163	26.970000	1.820000	0.000000	0.000000	0.000000
259164	27.030000	2.500000	0.000000	0.000000	0.000000
259165	32.540000	2.590000	0.000000	0.000000	0.000000
259166	37.470000	1.870000	0.000000	0.000000	0.000000
259167	37.500000	1.310000	0.000000	0.000000	0.000000
259168	36.750000	1.660000	0.000000	0.000000	0.000000
259169	35.860000	3.270000	0.000000	0.000000	0.000000
259170	34.590000	2.430000	0.000000	0.000000	0.000000
259171	33.830000	2.350000	0.000000	0.000000	0.000000
259172	35.400000	1.930000	0.000000	0.000000	0.000000
259173	27.770000	2.770000	0.000000	0.000000	0.000000
259174	24.350000	3.010000	0.000000	0.000000	0.000000
259175	19.020000	2.600000	0.000000	0.000000	0.000000
259176	18.870000	2.640000	0.000000	0.000000	0.000000
259177	18.720000	2.570000	0.000000	0.000000	0.000000
259178	25.960000	1.810000	0.000000	0.000000	0.000000
259179	28.060000	1.840000	0.000000	0.000000	0.000000
259180	18.540000	2.420000	0.000000	0.000000	0.000000
259181	18.350000	2.670000	0.000000	0.000000	0.000000
259182	18.140000	2.670000	0.000000	0.000000	0.000000
259183	28.840000	1.920000	0.000000	0.000000	0.000000
259184	25.200000	1.670000	0.000000	0.000000	0.000000
259185	23.540000	3.050000	0.000000	0.000000	0.000000
272052	29.290000	1.950000	0.000000	0.000000	0.000000
272053	31.770000	1.850000	0.000000	0.000000	0.000000
272054	32.960000	1.890000	0.000000	0.000000	0.000000
272055	34.800000	1.560000	0.000000	0.000000	0.000000
272056	36.010000	1.590000	0.000000	0.000000	0.000000
272057	36.580000	1.690000	0.000000	0.000000	0.000000
272058	37.950000	1.600000	0.000000	0.000000	0.000000
272059	34.550000	1.790000	0.000000	0.000000	0.000000
272060	34.500000	1.060000	0.000000	0.000000	0.000000
272061	32.600000	2.040000	0.000000	0.000000	0.000000
272062	31.520000	1.610000	0.000000	0.000000	0.000000
272063	28.180000	3.580000	0.000000	0.000000	0.000000
272064	30.470000	1.550000	0.000000	0.000000	0.000000
272065	27.080000	1.470000	0.000000	0.000000	0.000000
272066	25.740000	1.940000	0.000000	0.000000	0.000000
272067	25.550000	1.410000	0.000000	0.000000	0.000000
272068	24.920000	1.820000	0.000000	0.000000	0.000000
272069	24.260000	3.310000	0.000000	0.000000	0.000000
272070	21.330000	4.270000	0.000000	0.000000	0.000000
272071	21.070000	2.370000	0.000000	0.000000	0.000000
272072	20.750000	2.070000	0.000000	0.000000	0.000000
272073	19.930000	2.870000	0.000000	0.000000	0.000000
272074	19.570000	3.630000	0.000000	0.000000	0.000000
272075	19.260000	2.690000	0.000000	0.000000	0.000000
272076	36.000000	1.430000	0.000000	0.000000	0.000000
272834	36.520000	2.470000	0.000000	0.000000	0.000000
274818	19.960000	1.540000	0.000000	0.000000	0.000000
274819	22.590000	1.610000	0.000000	0.000000	0.000000
274820	21.400000	1.900000	0.000000	0.000000	0.000000
274821	22.760000	4.240000	0.000000	0.000000	0.000000
274822	26.970000	2.930000	0.000000	0.000000	0.000000
274823	27.710000	3.190000	0.000000	0.000000	0.000000
274824	35.850000	2.450000	0.000000	0.000000	0.000000
274825	33.700000	1.600000	0.000000	0.000000	0.000000
274826	26.470000	3.330000	0.000000	0.000000	0.000000
274827	24.850000	4.650000	0.000000	0.000000	0.000000
274828	27.850000	1.650000	0.000000	0.000000	0.000000
274829	29.050000	1.650000	0.000000	0.000000	0.000000
274830	26.380000	1.620000	0.000000	0.000000	0.000000
274831	26.150000	2.050000	0.000000	0.000000	0.000000
274832	30.860000	1.940000	0.000000	0.000000	0.000000
274833	26.000000	2.400000	0.000000	0.000000	0.000000
274834	27.960000	1.540000	0.000000	0.000000	0.000000
274835	25.840000	2.960000	0.000000	0.000000	0.000000
274836	22.460000	1.640000	0.000000	0.000000	0.000000
274837	22.260000	1.640000	0.000000	0.000000	0.000000
274838	20.400000	1.700000	0.000000	0.000000	0.000000
274839	19.590000	9.910000	0.000000	0.000000	0.000000
274840	13.550000	2.650000	0.000000	0.000000	0.000000
274841	13.790000	2.410000	0.000000	0.000000	0.000000
274842	14.120000	2.350000	0.000000	0.000000	0.000000
274843	14.390000	2.820000	0.000000	0.000000	0.000000
274844	16.380000	2.020000	0.000000	0.000000	0.000000
274845	16.680000	2.320000	0.000000	0.000000	0.000000
274846	16.960000	2.700000	0.000000	0.000000	0.000000
274847	17.250000	3.350000	0.000000	0.000000	0.000000
274848	17.480000	3.120000	0.000000	0.000000	0.000000
274849	17.850000	2.650000	0.000000	0.000000	0.000000
274850	18.040000	2.460000	0.000000	0.000000	0.000000
274851	18.540000	2.460000	0.000000	0.000000	0.000000
274852	18.870000	2.330000	0.000000	0.000000	0.000000
274853	19.350000	2.050000	0.000000	0.000000	0.000000
274854	19.580000	2.020000	0.000000	0.000000	0.000000
274855	19.830000	1.930000	0.000000	0.000000	0.000000
274856	20.050000	1.910000	0.000000	0.000000	0.000000
274857	20.560000	1.920000	0.000000	0.000000	0.000000
274858	20.900000	2.060000	0.000000	0.000000	0.000000
274859	21.360000	2.040000	0.000000	0.000000	0.000000
274860	21.920000	1.980000	0.000000	0.000000	0.000000
286005	36.530000	1.080000	0.000000	0.000000	0.000000
287287	36.140000	2.230000	0.000000	0.000000	0.000000
287288	35.600000	1.690000	0.000000	0.000000	0.000000
287289	32.320000	3.880000	0.000000	0.000000	0.000000
287290	31.950000	3.090000	0.000000	0.000000	0.000000
287291	26.610000	2.800000	0.000000	0.000000	0.000000
287292	34.180000	3.190000	0.000000	0.000000	0.000000
287293	33.970000	4.040000	0.000000	0.000000	0.000000
287294	33.690000	3.950000	0.000000	0.000000	0.000000
287295	33.410000	2.300000	0.000000	0.000000	0.000000
287296	29.760000	1.490000	0.000000	0.000000	0.000000
287297	28.790000	2.180000	0.000000	0.000000	0.000000
287298	34.460000	1.870000	0.000000	0.000000	0.000000
287299	32.000000	3.350000	0.000000	0.000000	0.000000
287300	39.260000	1.790000	0.000000	0.000000	0.000000
287301	38.540000	1.540000	0.000000	0.000000	0.000000
287302	37.150000	1.600000	0.000000	0.000000	0.000000
287303	36.150000	1.500000	0.000000	0.000000	0.000000
287304	33.790000	2.450000	0.000000	0.000000	0.000000
287305	31.650000	2.020000	0.000000	0.000000	0.000000
287306	27.350000	2.760000	0.000000	0.000000	0.000000
287307	26.940000	3.130000	0.000000	0.000000	0.000000
287308	26.440000	2.890000	0.000000	0.000000	0.000000
287309	24.770000	1.510000	0.000000	0.000000	0.000000
287310	23.780000	1.900000	0.000000	0.000000	0.000000
287311	50.510000	1.660000	0.000000	0.000000	0.000000
287312	49.390000	1.560000	0.000000	0.000000	0.000000
287313	49.310000	2.390000	0.000000	0.000000	0.000000
287314	45.540000	2.520000	0.000000	0.000000	0.000000
287315	44.930000	2.050000	0.000000	0.000000	0.000000
287316	42.500000	1.480000	0.000000	0.000000	0.000000
287317	38.500000	1.530000	0.000000	0.000000	0.000000
287318	35.250000	1.540000	0.000000	0.000000	0.000000
287319	32.270000	1.940000	0.000000	0.000000	0.000000
287320	29.440000	1.920000	0.000000	0.000000	0.000000
287321	38.840000	1.560000	0.000000	0.000000	0.000000
287322	33.490000	1.840000	0.000000	0.000000	0.000000
287323	28.920000	2.720000	0.000000	0.000000	0.000000
287324	28.160000	4.420000	0.000000	0.000000	0.000000
287325	27.870000	2.790000	0.000000	0.000000	0.000000
287326	34.610000	1.110000	0.000000	0.000000	0.000000
287327	35.640000	2.040000	0.000000	0.000000	0.000000
287328	43.040000	2.390000	0.000000	0.000000	0.000000
287329	52.300000	1.300000	0.000000	0.000000	0.000000
287330	33.640000	1.430000	0.000000	0.000000	0.000000
287331	29.350000	1.500000	0.000000	0.000000	0.000000
287332	33.360000	1.250000	0.000000	0.000000	0.000000
287333	41.180000	1.020000	0.000000	0.000000	0.000000
287334	27.570000	2.920000	0.000000	0.000000	0.000000
287335	30.670000	1.570000	0.000000	0.000000	0.000000
292737	25.320000	1.620000	0.000000	0.000000	0.000000
292738	27.250000	1.250000	0.000000	0.000000	0.000000
292739	20.920000	1.830000	0.000000	0.000000	0.000000
292740	20.360000	1.990000	0.000000	0.000000	0.000000
292741	21.060000	1.540000	0.000000	0.000000	0.000000
292742	24.550000	3.490000	0.000000	0.000000	0.000000
292743	21.400000	2.350000	0.000000	0.000000	0.000000
292744	20.700000	2.450000	0.000000	0.000000	0.000000
292745	21.030000	1.390000	0.000000	0.000000	0.000000
292746	23.990000	1.950000	0.000000	0.000000	0.000000
292747	22.770000	1.810000	0.000000	0.000000	0.000000
292748	23.300000	2.200000	0.000000	0.000000	0.000000
292749	25.680000	2.170000	0.000000	0.000000	0.000000
292750	25.000000	1.700000	0.000000	0.000000	0.000000
292751	24.620000	1.760000	0.000000	0.000000	0.000000
292752	27.850000	1.400000	0.000000	0.000000	0.000000
292753	26.950000	1.580000	0.000000	0.000000	0.000000
292754	28.250000	2.240000	0.000000	0.000000	0.000000
292755	28.790000	1.710000	0.000000	0.000000	0.000000
292756	23.000000	2.200000	0.000000	0.000000	0.000000
292757	28.310000	1.540000	0.000000	0.000000	0.000000
292758	22.790000	2.360000	0.000000	0.000000	0.000000
292759	27.020000	1.720000	0.000000	0.000000	0.000000
292760	27.790000	1.840000	0.000000	0.000000	0.000000
2_0	34.230000	1.270000	0.000000	0.000000	0.000000
2_1	35.500000	1.500000	0.000000	0.000000	0.000000
2_26	32.720000	1.070000	0.000000	0.000000	0.000000
2_27	33.040000	1.460000	0.000000	0.000000	0.000000
2_29	10.880000	6.220000	0.000000	0.000000	0.000000
2_30	22.810000	1.390000	0.000000	0.000000	0.000000
2_31	35.620000	1.380000	0.000000	0.000000	0.000000
2_32	24.360000	1.840000	0.000000	0.000000	0.000000
2_33	13.610000	1.090000	0.000000	0.000000	0.000000
2_34	15.470000	3.380000	0.000000	0.000000	0.000000
323164	22.120000	2.080000	0.000000	0.000000	0.000000
323165	24.740000	1.560000	0.000000	0.000000	0.000000
323166	18.710000	1.890000	0.000000	0.000000	0.000000
323167	18.510000	1.690000	0.000000	0.000000	0.000000
323168	18.840000	1.560000	0.000000	0.000000	0.000000
323169	19.350000	1.450000	0.000000	0.000000	0.000000
323170	20.760000	1.540000	0.000000	0.000000	0.000000
323171	16.500000	2.360000	0.000000	0.000000	0.000000
323172	17.370000	1.530000	0.000000	0.000000	0.000000
323173	18.220000	1.480000	0.000000	0.000000	0.000000
323174	18.940000	2.330000	0.000000	0.000000	0.000000
323175	19.610000	1.890000	0.000000	0.000000	0.000000
323176	21.350000	1.550000	0.000000	0.000000	0.000000
323177	22.270000	1.530000	0.000000	0.000000	0.000000
323178	22.490000	1.510000	0.000000	0.000000	0.000000
323179	25.170000	1.530000	0.000000	0.000000	0.000000
323180	20.720000	1.480000	0.000000	0.000000	0.000000
323181	19.040000	2.660000	0.000000	0.000000	0.000000
323182	19.630000	2.870000	0.000000	0.000000	0.000000
323183	21.310000	2.190000	0.000000	0.000000	0.000000
323184	21.840000	3.060000	0.000000	0.000000	0.000000
323185	23.010000	2.980000	0.000000	0.000000	0.000000
323186	24.030000	2.470000	0.000000	0.000000	0.000000
323187	21.470000	1.530000	0.000000	0.000000	0.000000
323188	22.230000	1.570000	0.000000	0.000000	0.000000
323189	14.080000	2.820000	0.000000	0.000000	0.000000
323190	14.540000	2.360000	0.000000	0.000000	0.000000
323191	15.140000	1.760000	0.000000	0.000000	0.000000
323192	15.330000	1.870000	0.000000	0.000000	0.000000
323193	15.560000	2.040000	0.000000	0.000000	0.000000
323194	15.880000	2.620000	0.000000	0.000000	0.000000
323195	16.150000	3.050000	0.000000	0.000000	0.000000
323196	17.720000	3.080000	0.000000	0.000000	0.000000
323197	25.420000	1.660000	0.000000	0.000000	0.000000
326542	34.120000	1.250000	0.000000	0.000000	0.000000
326543	30.130000	2.790000	0.000000	0.000000	0.000000
326544	33.010000	1.620000	0.000000	0.000000	0.000000
329692	30.920000	2.080000	0.000000	0.000000	0.000000
329693	34.520000	2.500000	0.000000	0.000000	0.000000
329694	23.980000	1.920000	0.000000	0.000000	0.000000
329695	25.310000	1.690000	0.000000	0.000000	0.000000
329696	26.010000	1.630000	0.000000	0.000000	0.000000
329697	26.840000	1.500000	0.000000	0.000000	0.000000
329698	28.240000	1.950000	0.000000	0.000000	0.000000
329699	30.470000	1.790000	0.000000	0.000000	0.000000
329700	34.470000	2.780000	0.000000	0.000000	0.000000
329701	38.330000	1.760000	0.000000	0.000000	0.000000
329702	35.980000	2.840000	0.000000	0.000000	0.000000
329703	43.960000	4.180000	0.000000	0.000000	0.000000
329704	47.580000	4.520000	0.000000	0.000000	0.000000
329705	49.920000	4.920000	0.000000	0.000000	0.000000
329706	52.190000	2.350000	0.000000	0.000000	0.000000
329707	53.200000	2.060000	0.000000	0.000000	0.000000
329708	39.400000	2.760000	0.000000	0.000000	0.000000
329709	43.450000	2.680000	0.000000	0.000000	0.000000
329710	45.410000	2.830000	0.000000	0.000000	0.000000
329711	48.920000	3.570000	0.000000	0.000000	0.000000
329712	52.890000	2.980000	0.000000	0.000000	0.000000
329713	53.840000	3.740000	0.000000	0.000000	0.000000
329714	55.810000	3.410000	0.000000	0.000000	0.000000
329715	60.550000	3.910000	0.000000	0.000000	0.000000
329716	60.940000	2.810000	0.000000	0.000000	0.000000
329717	55.780000	1.910000	0.000000	0.000000	0.000000
329718	56.610000	2.380000	0.000000	0.000000	0.000000
329719	58.630000	2.380000	0.000000	0.000000	0.000000
329720	55.030000	4.030000	0.000000	0.000000	0.000000
329721	61.420000	1.930000	0.000000	0.000000	0.000000
329722	65.030000	2.230000	0.000000	0.000000	0.000000
329723	62.150000	4.490000	0.000000	0.000000	0.000000
329724	55.200000	3.170000	0.000000	0.000000	0.000000
329725	51.800000	2.540000	0.000000	0.000000	0.000000
329726	51.610000	2.530000	0.000000	0.000000	0.000000
329727	50.320000	1.840000	0.000000	0.000000	0.000000
329728	43.290000	3.050000	0.000000	0.000000	0.000000
329729	41.130000	3.370000	0.000000	0.000000	0.000000
329730	38.280000	2.430000	0.000000	0.000000	0.000000
329731	36.890000	2.810000	0.000000	0.000000	0.000000
329732	36.120000	3.090000	0.000000	0.000000	0.000000
329733	34.280000	3.120000	0.000000	0.000000	0.000000
329734	31.560000	2.550000	0.000000	0.000000	0.000000
329735	30.910000	2.560000	0.000000	0.000000	0.000000
329736	28.520000	2.910000	0.000000	0.000000	0.000000
329737	28.200000	2.470000	0.000000	0.000000	0.000000
329738	27.000000	2.950000	0.000000	0.000000	0.000000
329739	24.360000	2.620000	0.000000	0.000000	0.000000
329740	24.340000	2.960000	0.000000	0.000000	0.000000
329741	23.760000	3.850000	0.000000	0.000000	0.000000
329742	21.270000	2.280000	0.000000	0.000000	0.000000
329743	45.320000	3.360000	0.000000	0.000000	0.000000
330755	17.260000	2.790000	0.000000	0.000000	0.000000
330833	17.430000	3.420000	0.000000	0.000000	0.000000
330834	17.620000	3.270000	0.000000	0.000000	0.000000
330835	21.380000	1.620000	0.000000	0.000000	0.000000
330836	21.830000	1.580000	0.000000	0.000000	0.000000
330837	23.710000	2.730000	0.000000	0.000000	0.000000
330838	24.530000	1.560000	0.000000	0.000000	0.000000
382294	22.000000	2.190000	0.000000	0.000000	0.000000
382295	23.370000	2.080000	0.000000	0.000000	0.000000
382296	24.690000	2.540000	0.000000	0.000000	0.000000
382297	25.290000	3.100000	0.000000	0.000000	0.000000
382298	25.750000	3.390000	0.000000	0.000000	0.000000
382299	26.500000	3.280000	0.000000	0.000000	0.000000
382300	27.320000	2.370000	0.000000	0.000000	0.000000
382301	27.970000	3.120000	0.000000	0.000000	0.000000
382302	29.200000	2.730000	0.000000	0.000000	0.000000
382303	30.140000	2.750000	0.000000	0.000000	0.000000
382304	30.640000	2.890000	0.000000	0.000000	0.000000
382305	35.100000	2.010000	0.000000	0.000000	0.000000
382306	34.880000	2.230000	0.000000	0.000000	0.000000
382307	36.820000	1.640000	0.000000	0.000000	0.000000
382308	37.100000	1.600000	0.000000	0.000000	0.000000
382309	39.200000	2.470000	0.000000	0.000000	0.000000
382310	33.940000	2.350000	0.000000	0.000000	0.000000
382311	36.270000	2.110000	0.000000	0.000000	0.000000
382312	37.200000	2.350000	0.000000	0.000000	0.000000
382313	39.610000	1.620000	0.000000	0.000000	0.000000
382314	41.260000	1.760000	0.000000	0.000000	0.000000
382315	42.670000	2.100000	0.000000	0.000000	0.000000
382316	44.550000	2.200000	0.000000	0.000000	0.000000
382317	47.020000	1.630000	0.000000	0.000000	0.000000
382318	48.990000	1.520000	0.000000	0.000000	0.000000
382319	40.790000	1.500000	0.000000	0.000000	0.000000
382320	37.850000	2.300000	0.000000	0.000000	0.000000
382321	40.700000	2.090000	0.000000	0.000000	0.000000
382322	33.550000	2.530000	0.000000	0.000000	0.000000
382323	39.790000	2.080000	0.000000	0.000000	0.000000
382324	31.140000	1.140000	0.000000	0.000000	0.000000
382325	30.220000	2.300000	0.000000	0.000000	0.000000
382326	30.840000	2.390000	0.000000	0.000000	0.000000
382327	32.560000	1.620000	0.000000	0.000000	0.000000
382328	35.790000	1.590000	0.000000	0.000000	0.000000
382329	43.890000	1.610000	0.000000	0.000000	0.000000
382330	42.880000	1.640000	0.000000	0.000000	0.000000
382331	29.320000	2.520000	0.000000	0.000000	0.000000
382332	26.990000	2.200000	0.000000	0.000000	0.000000
382333	26.470000	1.630000	0.000000	0.000000	0.000000
382334	25.110000	1.290000	0.000000	0.000000	0.000000
382335	24.960000	1.330000	0.000000	0.000000	0.000000
382343	30.200000	2.830000	0.000000	0.000000	0.000000
382344	30.800000	2.110000	0.000000	0.000000	0.000000
382345	35.430000	1.900000	0.000000	0.000000	0.000000
382346	41.490000	2.600000	0.000000	0.000000	0.000000
382347	49.080000	2.360000	0.000000	0.000000	0.000000
382682	25.510000	1.640000	0.000000	0.000000	0.000000
382683	26.530000	1.490000	0.000000	0.000000	0.000000
382684	28.930000	2.110000	0.000000	0.000000	0.000000
382685	29.720000	2.930000	0.000000	0.000000	0.000000
382687	24.720000	1.800000	0.000000	0.000000	0.000000
382688	24.650000	1.580000	0.000000	0.000000	0.000000
382689	24.200000	2.000000	0.000000	0.000000	0.000000
382690	24.370000	1.860000	0.000000	0.000000	0.000000
382691	24.560000	1.870000	0.000000	0.000000	0.000000
382692	24.800000	1.630000	0.000000	0.000000	0.000000
382693	25.760000	2.080000	0.000000	0.000000	0.000000
382694	25.970000	1.790000	0.000000	0.000000	0.000000
382695	28.030000	1.950000	0.000000	0.000000	0.000000
382696	24.990000	2.150000	0.000000	0.000000	0.000000
382697	24.990000	2.380000	0.000000	0.000000	0.000000
382698	25.510000	1.360000	0.000000	0.000000	0.000000
382699	26.590000	1.580000	0.000000	0.000000	0.000000
382700	30.520000	1.620000	0.000000	0.000000	0.000000
385106	18.530000	1.220000	0.000000	0.000000	0.000000
385107	18.210000	2.530000	0.000000	0.000000	0.000000
385108	20.110000	3.000000	0.000000	0.000000	0.000000
385109	22.120000	2.380000	0.000000	0.000000	0.000000
385110	22.480000	2.610000	0.000000	0.000000	0.000000
385111	22.920000	3.780000	0.000000	0.000000	0.000000
385112	23.380000	3.600000	0.000000	0.000000	0.000000
385113	17.980000	1.730000	0.000000	0.000000	0.000000
385114	17.850000	1.250000	0.000000	0.000000	0.000000
385115	15.600000	3.300000	0.000000	0.000000	0.000000
385116	17.150000	2.250000	0.000000	0.000000	0.000000
385117	19.460000	1.290000	0.000000	0.000000	0.000000
385118	19.750000	2.020000	0.000000	0.000000	0.000000
385119	19.970000	1.530000	0.000000	0.000000	0.000000
385120	20.930000	1.920000	0.000000	0.000000	0.000000
385121	17.120000	3.030000	0.000000	0.000000	0.000000
385122	10.840000	6.450000	0.000000	0.000000	0.000000
385123	10.720000	7.260000	0.000000	0.000000	0.000000
385124	11.780000	5.800000	0.000000	0.000000	0.000000
385125	15.000000	3.020000	0.000000	0.000000	0.000000
385126	15.480000	4.180000	0.000000	0.000000	0.000000
385127	15.640000	3.940000	0.000000	0.000000	0.000000
385128	15.940000	2.980000	0.000000	0.000000	0.000000
385129	16.500000	2.960000	0.000000	0.000000	0.000000
385130	16.880000	2.710000	0.000000	0.000000	0.000000
386447	30.620000	1.830000	0.000000	0.000000	0.000000
386448	43.730000	2.870000	0.000000	0.000000	0.000000
386449	41.920000	1.330000	0.000000	0.000000	0.000000
386450	46.610000	1.640000	0.000000	0.000000	0.000000
386451	46.770000	1.580000	0.000000	0.000000	0.000000
386453	29.540000	2.910000	0.000000	0.000000	0.000000
386454	29.190000	2.510000	0.000000	0.000000	0.000000
386455	32.520000	1.780000	0.000000	0.000000	0.000000
386456	31.420000	1.960000	0.000000	0.000000	0.000000
386457	28.400000	2.600000	0.000000	0.000000	0.000000
386458	31.450000	3.250000	0.000000	0.000000	0.000000
386459	34.710000	2.760000	0.000000	0.000000	0.000000
386461	29.440000	2.460000	0.000000	0.000000	0.000000
386462	31.480000	1.480000	0.000000	0.000000	0.000000
386463	34.210000	1.540000	0.000000	0.000000	0.000000
386464	33.880000	2.580000	0.000000	0.000000	0.000000
386465	38.730000	2.240000	0.000000	0.000000	0.000000
386466	31.230000	2.530000	0.000000	0.000000	0.000000
386467	33.170000	1.900000	0.000000	0.000000	0.000000
386468	33.520000	2.070000	0.000000	0.000000	0.000000
386469	34.200000	1.970000	0.000000	0.000000	0.000000
386470	38.270000	2.140000	0.000000	0.000000	0.000000
386471	43.300000	2.710000	0.000000	0.000000	0.000000
394083	21.390000	2.410000	0.000000	0.000000	0.000000
394084	21.710000	1.710000	0.000000	0.000000	0.000000
394085	22.670000	1.740000	0.000000	0.000000	0.000000
394306	11.030000	5.890000	0.000000	0.000000	0.000000
394307	11.140000	5.690000	0.000000	0.000000	0.000000
394308	15.800000	1.550000	0.000000	0.000000	0.000000
394309	11.300000	5.670000	0.000000	0.000000	0.000000
394310	11.920000	4.310000	0.000000	0.000000	0.000000
394311	12.440000	3.870000	0.000000	0.000000	0.000000
394312	16.030000	1.550000	0.000000	0.000000	0.000000
394313	12.630000	3.850000	0.000000	0.000000	0.000000
394314	12.760000	3.410000	0.000000	0.000000	0.000000
394315	15.870000	1.870000	0.000000	0.000000	0.000000
394316	16.730000	1.550000	0.000000	0.000000	0.000000
394317	13.000000	3.120000	0.000000	0.000000	0.000000
394318	13.540000	2.220000	0.000000	0.000000	0.000000
394319	14.100000	1.920000	0.000000	0.000000	0.000000
394320	14.500000	1.520000	0.000000	0.000000	0.000000
394321	15.400000	1.550000	0.000000	0.000000	0.000000
394322	11.610000	4.890000	0.000000	0.000000	0.000000
394323	15.780000	1.520000	0.000000	0.000000	0.000000
394324	14.460000	2.940000	0.000000	0.000000	0.000000
394325	16.380000	1.540000	0.000000	0.000000	0.000000
394720	40.160000	2.080000	0.000000	0.000000	0.000000
395133	41.250000	1.650000	0.000000	0.000000	0.000000
395135	28.280000	2.520000	0.000000	0.000000	0.000000
395136	35.370000	1.550000	0.000000	0.000000	0.000000
395137	36.800000	1.500000	0.000000	0.000000	0.000000
395138	42.150000	1.870000	0.000000	0.000000	0.000000
395139	30.000000	3.130000	0.000000	0.000000	0.000000
395140	38.340000	1.810000	0.000000	0.000000	0.000000
395141	40.800000	2.100000	0.000000	0.000000	0.000000
395142	27.770000	1.990000	0.000000	0.000000	0.000000
395143	32.970000	1.690000	0.000000	0.000000	0.000000
395144	36.400000	1.550000	0.000000	0.000000	0.000000
395145	37.280000	1.890000	0.000000	0.000000	0.000000
395146	41.350000	1.540000	0.000000	0.000000	0.000000
395147	43.910000	1.600000	0.000000	0.000000	0.000000
395148	44.980000	1.960000	0.000000	0.000000	0.000000
395149	46.050000	1.850000	0.000000	0.000000	0.000000
395150	27.370000	2.100000	0.000000	0.000000	0.000000
395151	33.960000	1.560000	0.000000	0.000000	0.000000
395152	34.960000	1.040000	0.000000	0.000000	0.000000
395153	29.140000	2.720000	0.000000	0.000000	0.000000
395154	29.400000	2.980000	0.000000	0.000000	0.000000
395155	29.920000	3.270000	0.000000	0.000000	0.000000
395156	21.020000	3.520000	0.000000	0.000000	0.000000
395157	21.810000	3.330000	0.000000	0.000000	0.000000
395158	22.420000	1.640000	0.000000	0.000000	0.000000
395159	22.810000	2.730000	0.000000	0.000000	0.000000
395160	23.690000	2.150000	0.000000	0.000000	0.000000
395161	23.910000	4.310000	0.000000	0.000000	0.000000