[TITLE]
Scenario Run :  BASE
 CID OCP


[OPTIONS]
;Option and Files Scenario Set: BASE, Base Simulation Options
FLOW_UNITS	CFS
INFILTRATION	GREEN_AMPT
FLOW_ROUTING	DYNWAVE
ALLOW_PONDING	NO
DRY_DAYS	5.000000
SKIP_STEADY_STATE 	NO
IGNORE_RAINFALL	NO
IGNORE_SNOWMELT	NO
IGNORE_GROUNDWATER	NO
IGNORE_QUALITY	NO
FORCE_MAIN_EQUATION	H-W
LINK_OFFSETS	DEPTH
MIN_SLOPE	0.000000
START_DATE	09/01/2006
START_TIME	00:00
END_DATE	09/03/2006
END_TIME	00:15
REPORT_START_DATE	09/01/2006
REPORT_START_TIME	00:00
SWEEP_START	01/01
SWEEP_END	12/31
WET_STEP	00:01:00
DRY_STEP	00:01:00
ROUTING_STEP	5.000000
REPORT_STEP	00:05:00
INERTIAL_DAMPING	NONE
VARIABLE_STEP	0.750000
LENGTHENING_STEP	5
MIN_SURFAREA	0.000000
NORMAL_FLOW_LIMITED	BOTH

[FILES]

[RAINGAGES]
EVENTH	CUMULATIVE	0.250000	1.000000	TIMESERIES	RN#37

[HYDROGRAPHS]

[TEMPERATURE]

[SUBCATCHMENTS]
S006-001#1	EVENTH	S006-001	16.037000	35.400000	637.513000	0.610000	0.000000	
S006-006#1	EVENTH	S006-006	45.769000	44.400000	1136.350000	0.240000	0.000000	
S006-011#1	EVENTH	S006-011	35.376000	68.600000	1252.370000	0.100000	0.000000	
S006-013#1	EVENTH	S006-013	10.588000	61.800000	413.660000	0.100000	0.000000	
S006-017#1	EVENTH	S006-017	29.390000	27.200000	1352.370000	0.090000	0.000000	
S006-020#1	EVENTH	S006-020	20.546000	53.600000	1046.900000	1.140000	0.000000	
S006-021#1	EVENTH	S006-021	37.482000	18.300000	980.390000	0.520000	0.000000	
S006-027#1	EVENTH	S006-027	25.703000	70.300000	966.735000	0.590000	0.000000	
S006-031#1	EVENTH	S006-031	24.947000	66.400000	659.068000	0.100000	0.000000	
S006-033#1	EVENTH	S006-033	26.788000	64.700000	933.605000	0.080000	0.000000	
S006-035#1	EVENTH	S006-035	14.216000	54.700000	1253.520000	0.100000	0.000000	
S006-037#1	EVENTH	S006-037	15.040000	52.000000	673.984000	0.210000	0.000000	
S006-038#1	EVENTH	S006-038	13.616000	53.100000	407.548000	0.140000	0.000000	
S006-042#1	EVENTH	S006-042	13.302000	55.000000	491.582000	0.100000	0.000000	
S006-044#1	EVENTH	S006-044	10.610000	70.800000	361.505000	0.240000	0.000000	
S006-061#1	EVENTH	S006-061	23.294000	49.400000	466.678000	0.040000	0.000000	
S006-106#1	EVENTH	S006-106	11.055000	7.000000	614.016000	0.120000	0.000000	
S006-127#1	EVENTH	S006-127	7.024000	27.400000	293.516000	1.740000	0.000000	
S006-803#1	EVENTH	S006-803	11.331000	82.400000	542.711000	0.220000	0.000000	
S008-024#1	EVENTH	S008-024	46.938000	37.000000	666.579000	2.210000	0.000000	
S008-035#1	EVENTH	S008-035	37.026000	44.000000	570.663000	0.070000	0.000000	
S008-039#1	EVENTH	S008-039	24.619000	32.900000	396.134000	0.040000	0.000000	
S009-012#1	EVENTH	S009-012	59.211000	28.200000	768.589000	3.320000	0.000000	
S009-032#1	EVENTH	S009-032	11.653000	41.000000	313.123000	0.100000	0.000000	
S009-064#1	EVENTH	S009-064	27.110000	49.200000	861.648000	0.380000	0.000000	
S009-070#1	EVENTH	S009-070	83.866000	22.300000	2498.450000	0.370000	0.000000	
S009-081#1	EVENTH	S009-081	28.512000	4.400000	755.889000	14.040000	0.000000	
S009-086#1	EVENTH	S009-086	38.878000	4.900000	999.796000	0.290000	0.000000	
S009-114#1	EVENTH	S009-114	14.988000	63.500000	401.719000	0.130000	0.000000	
S009-116#1	EVENTH	S009-116	10.023000	30.900000	612.035000	0.100000	0.000000	
S009-120#1	EVENTH	S009-120	29.297000	14.000000	743.420000	0.170000	0.000000	
S009-131#1	EVENTH	S009-131	12.941000	12.000000	319.193000	0.540000	0.000000	
S009-801#1	EVENTH	S009-801	36.372000	40.400000	945.895000	0.680000	0.000000	
S009-821#1	EVENTH	S009-821	30.564000	23.600000	623.716000	0.190000	0.000000	
S010-007#1	EVENTH	S010-007	47.449000	10.200000	3173.860000	0.030000	0.000000	
S010-025#1	EVENTH	S010-025	7.302000	75.800000	672.715000	0.420000	0.000000	
S010-029#1	EVENTH	S010-029	9.349000	80.700000	424.748000	0.100000	0.000000	
S010-032#1	EVENTH	S010-032	17.065000	79.600000	1189.770000	2.390000	0.000000	
S010-033#1	EVENTH	S010-033	19.132000	80.000000	514.918000	0.100000	0.000000	
S010-039#1	EVENTH	S010-039	8.578000	66.100000	418.289000	1.000000	0.000000	
S010-046#1	EVENTH	S010-046	9.815000	81.200000	404.399000	0.080000	0.000000	
S010-049#1	EVENTH	S010-049	8.446000	54.900000	370.138000	0.100000	0.000000	
S010-051#1	EVENTH	S010-051	23.903000	58.500000	510.753000	0.120000	0.000000	
S010-056#1	EVENTH	S010-056	15.576000	70.900000	684.699000	0.200000	0.000000	
S010-060#1	EVENTH	S010-060	28.549000	10.600000	892.341000	0.030000	0.000000	
S010-062#1	EVENTH	S010-062	25.987000	7.300000	534.534000	0.240000	0.000000	
S010-065#1	EVENTH	S010-065	27.298000	86.100000	627.475000	0.040000	0.000000	
S010-073#1	EVENTH	S010-073	560.040000	23.000000	4538.110000	0.030000	0.000000	
S010-816#1	EVENTH	S010-816	8.535000	46.700000	483.350000	0.520000	0.000000	
S011-005#1	EVENTH	S011-005	427.050000	10.200000	3173.860000	0.030000	0.000000	
S011-027#1	EVENTH	S011-027	80.020000	16.100000	965.522000	0.100000	0.000000	
S011-033#1	EVENTH	S011-033	95.894000	24.200000	719.929000	0.020000	0.000000	
S026-316#1	EVENTH	S026-316	46.533000	35.300000	1098.830000	7.050000	0.000000	
S026-334#1	EVENTH	S026-334	83.914000	18.500000	1060.660000	6.440000	0.000000	
S026-812#1	EVENTH	S026-812	207.658000	26.600000	2007.470000	4.030000	0.000000	
S027-023#1	EVENTH	S027-023	7.477000	48.700000	349.707000	3.180000	0.000000	
S027-031#1	EVENTH	S027-031	1.136000	54.800000	120.456000	3.270000	0.000000	
S027-033#1	EVENTH	S027-033	21.494000	52.800000	576.601000	4.150000	0.000000	
S027-048#1	EVENTH	S027-048	7.907000	56.200000	294.127000	2.710000	0.000000	
S027-054#1	EVENTH	S027-054	19.628000	65.200000	679.677000	1.780000	0.000000	
S027-066#1	EVENTH	S027-066	24.560000	30.600000	600.295000	4.690000	0.000000	
S027-075#1	EVENTH	S027-075	5.999000	34.800000	287.076000	4.150000	0.000000	
S027-077#1	EVENTH	S027-077	31.513000	43.700000	737.045000	3.600000	0.000000	
S027-086#1	EVENTH	S027-086	5.035000	25.100000	366.100000	2.430000	0.000000	
S027-092#1	EVENTH	S027-092	34.927000	10.600000	770.300000	7.230000	0.000000	
S027-129#1	EVENTH	S027-129	29.618000	35.200000	568.212000	2.720000	0.000000	
S027-247#1	EVENTH	S027-247	17.811000	43.200000	641.730000	3.830000	0.000000	
S027-251#1	EVENTH	S027-251	9.221000	45.000000	404.298000	3.990000	0.000000	
S027-271#1	EVENTH	S027-271	12.451000	23.000000	596.538000	4.330000	0.000000	
S027-287#1	EVENTH	S027-287	83.603000	29.500000	1421.510000	4.220000	0.000000	
S027-309#1	EVENTH	S027-309	9.508000	45.700000	703.682000	2.440000	0.000000	
S027-359#1	EVENTH	S027-359	9.821000	17.800000	685.050000	8.340000	0.000000	
S027-442#1	EVENTH	S027-442	6.704000	48.800000	418.845000	6.830000	0.000000	
S027-805#1	EVENTH	S027-805	17.457000	36.900000	303.639000	2.970000	0.000000	
S027-831#1	EVENTH	S027-831	7.990000	47.600000	313.790000	1.980000	0.000000	
S027-836#1	EVENTH	S027-836	0.348000	45.700000	71.337000	4.430000	0.000000	
S027-837#1	EVENTH	S027-837	0.286000	44.600000	79.282000	5.860000	0.000000	
S027-840#1	EVENTH	S027-840	0.281000	51.100000	103.598000	5.340000	0.000000	
S027-843#1	EVENTH	S027-843	0.505000	39.200000	94.387000	3.430000	0.000000	
S027-861#1	EVENTH	S027-861	24.246000	20.300000	925.416000	2.240000	0.000000	
S027-867#1	EVENTH	S027-867	16.566000	16.700000	599.398000	6.620000	0.000000	
S027-875#1	EVENTH	S027-875	6.921000	32.600000	259.695000	4.910000	0.000000	
S028-034#1	EVENTH	S028-034	8.922000	88.400000	438.487000	3.220000	0.000000	
S028-059#1	EVENTH	S028-059	1.011000	71.500000	148.978000	3.120000	0.000000	
S028-065#1	EVENTH	S028-065	17.608000	75.100000	439.072000	1.800000	0.000000	
S028-081#1	EVENTH	S028-081	57.543000	44.100000	1014.020000	1.620000	0.000000	
S028-090#1	EVENTH	S028-090	4.259000	58.900000	326.011000	2.200000	0.000000	
S028-096#1	EVENTH	S028-096	2.997000	93.100000	226.209000	2.580000	0.000000	
S028-101#1	EVENTH	S028-101	11.656000	88.700000	550.287000	2.760000	0.000000	
S028-105#1	EVENTH	S028-105	6.876000	81.700000	357.023000	1.380000	0.000000	
S028-118#1	EVENTH	S028-118	1.221000	89.600000	154.265000	3.880000	0.000000	
S028-155#1	EVENTH	S028-155	5.701000	49.600000	335.851000	2.730000	0.000000	
S028-204#1	EVENTH	S028-204	6.358000	50.100000	321.723000	0.610000	0.000000	
S028-206#1	EVENTH	S028-206	1.085000	30.400000	90.664000	0.380000	0.000000	
S028-218#1	EVENTH	S028-218	9.130000	33.100000	525.478000	1.420000	0.000000	
S028-223#1	EVENTH	S028-223	7.012000	47.900000	324.917000	4.190000	0.000000	
S028-224#1	EVENTH	S028-224	4.369000	27.000000	319.095000	7.270000	0.000000	
S028-241#1	EVENTH	S028-241	25.368000	58.100000	818.648000	1.750000	0.000000	
S028-246#1	EVENTH	S028-246	13.950000	31.700000	591.895000	2.870000	0.000000	
S028-256#1	EVENTH	S028-256	49.800000	21.100000	1581.590000	4.750000	0.000000	
S028-291#1	EVENTH	S028-291	12.693000	71.100000	552.953000	1.650000	0.000000	
S028-293#1	EVENTH	S028-293	11.918000	51.500000	726.669000	5.390000	0.000000	
S028-499#1	EVENTH	S028-499	5.473000	47.900000	301.736000	5.180000	0.000000	
S028-856#1	EVENTH	S028-856	4.688000	35.900000	426.152000	3.050000	0.000000	
S028-948#1	EVENTH	S028-948	21.971000	48.000000	830.752000	1.870000	0.000000	
S028-954#1	EVENTH	S028-954	3.163000	93.000000	421.195000	4.000000	0.000000	
S028-961#1	EVENTH	S028-961	15.160000	33.600000	456.421000	0.050000	0.000000	
S031-069#1	EVENTH	S031-069	7.994000	87.100000	431.474000	4.050000	0.000000	
S031-075#1	EVENTH	S031-075	1.084000	88.100000	136.620000	3.900000	0.000000	
S031-085#1	EVENTH	S031-085	8.675000	89.800000	303.007000	4.990000	0.000000	
S031-086#1	EVENTH	S031-086	2.542000	87.300000	258.092000	7.950000	0.000000	
S031-087#1	EVENTH	S031-087	8.309000	87.100000	477.895000	3.710000	0.000000	
S031-219#1	EVENTH	S031-219	5.753000	83.500000	395.305000	6.250000	0.000000	
S031-236#1	EVENTH	S031-236	4.475000	87.300000	255.121000	4.990000	0.000000	
S031-247#1	EVENTH	S031-247	6.349000	82.900000	286.155000	5.540000	0.000000	
S031-252#1	EVENTH	S031-252	1.206000	88.300000	174.956000	9.340000	0.000000	
S031-265#1	EVENTH	S031-265	5.726000	86.900000	327.997000	2.530000	0.000000	
S031-276#1	EVENTH	S031-276	3.958000	69.500000	441.331000	3.920000	0.000000	
S031-294#1	EVENTH	S031-294	10.957000	75.900000	344.302000	5.880000	0.000000	
S031-475#1	EVENTH	S031-475	1.410000	42.400000	311.171000	1.330000	0.000000	
S031-479#1	EVENTH	S031-479	1.651000	80.600000	394.219000	1.850000	0.000000	
S031-482#1	EVENTH	S031-482	2.606000	68.300000	287.987000	4.160000	0.000000	
S031-484#1	EVENTH	S031-484	2.473000	35.800000	342.904000	9.980000	0.000000	
S031-485#1	EVENTH	S031-485	2.696000	71.700000	252.540000	6.640000	0.000000	
S031-489#1	EVENTH	S031-489	3.520000	61.100000	367.544000	6.240000	0.000000	
S031-493#1	EVENTH	S031-493	1.000000	81.500000	165.112000	4.890000	0.000000	
S031-495#1	EVENTH	S031-495	8.447000	54.700000	335.042000	6.940000	0.000000	
S031-505#1	EVENTH	S031-505	7.553000	44.600000	210.175000	3.710000	0.000000	
S031-507#1	EVENTH	S031-507	3.322000	59.600000	229.524000	6.650000	0.000000	
S031-512#1	EVENTH	S031-512	3.437000	47.100000	195.310000	5.190000	0.000000	
S031-529#1	EVENTH	S031-529	3.878000	59.500000	265.828000	2.010000	0.000000	
S031-536#1	EVENTH	S031-536	5.112000	74.600000	413.494000	4.300000	0.000000	
S031-545#1	EVENTH	S031-545	9.410000	75.100000	421.592000	2.440000	0.000000	
S031-709#1	EVENTH	S031-709	8.969000	73.700000	333.465000	7.410000	0.000000	
S031-767#1	EVENTH	S031-767	4.863000	69.900000	219.753000	6.270000	0.000000	
S031-772#1	EVENTH	S031-772	8.394000	80.800000	283.473000	5.050000	0.000000	
S031-774#1	EVENTH	S031-774	8.566000	78.300000	411.332000	4.880000	0.000000	
S031-776#1	EVENTH	S031-776	4.661000	76.300000	337.433000	0.810000	0.000000	
S031-880#1	EVENTH	S031-880	0.586000	70.100000	92.109000	5.390000	0.000000	
S031-908#1	EVENTH	S031-908	0.986000	90.500000	124.959000	3.330000	0.000000	
S031-910#1	EVENTH	S031-910	0.203000	93.500000	111.929000	2.530000	0.000000	
S031-915#1	EVENTH	S031-915	1.588000	56.100000	220.943000	7.670000	0.000000	
S031-971#1	EVENTH	S031-971	11.080000	84.300000	432.004000	3.380000	0.000000	
S032-129#1	EVENTH	S032-129	10.274000	58.500000	403.787000	3.120000	0.000000	
S032-137#1	EVENTH	S032-137	6.798000	64.400000	433.668000	1.990000	0.000000	
S032-142#1	EVENTH	S032-142	15.434000	63.300000	494.512000	1.440000	0.000000	
S032-291#1	EVENTH	S032-291	5.252000	61.800000	289.461000	1.580000	0.000000	
S032-293#1	EVENTH	S032-293	1.763000	43.500000	272.737000	0.510000	0.000000	
S032-295#1	EVENTH	S032-295	2.568000	57.500000	281.303000	0.100000	0.000000	
S032-308#1	EVENTH	S032-308	8.453000	32.400000	649.005000	0.330000	0.000000	
S032-310#1	EVENTH	S032-310	4.159000	35.400000	236.927000	0.100000	0.000000	

[SUBAREAS]
S006-001#1	0.014000	0.030000	0.080000	0.080000	0.000000	OUTLET
S006-006#1	0.014000	0.030000	0.080000	0.080000	0.000000	OUTLET
S006-011#1	0.014000	0.030000	0.080000	0.080000	0.000000	OUTLET
S006-013#1	0.014000	0.030000	0.080000	0.080000	0.000000	OUTLET
S006-017#1	0.014000	0.030000	0.080000	0.080000	0.000000	OUTLET
S006-020#1	0.014000	0.030000	0.080000	0.080000	0.000000	OUTLET
S006-021#1	0.014000	0.030000	0.080000	0.080000	0.000000	OUTLET
S006-027#1	0.014000	0.030000	0.080000	0.080000	0.000000	OUTLET
S006-031#1	0.014000	0.030000	0.080000	0.080000	0.000000	OUTLET
S006-033#1	0.014000	0.030000	0.080000	0.080000	0.000000	OUTLET
S006-035#1	0.014000	0.030000	0.080000	0.080000	0.000000	OUTLET
S006-037#1	0.014000	0.030000	0.080000	0.080000	0.000000	OUTLET
S006-038#1	0.014000	0.030000	0.080000	0.080000	0.000000	OUTLET
S006-042#1	0.014000	0.030000	0.080000	0.080000	0.000000	OUTLET
S006-044#1	0.014000	0.030000	0.080000	0.080000	0.000000	OUTLET
S006-061#1	0.014000	0.030000	0.080000	0.080000	0.000000	OUTLET
S006-106#1	0.014000	0.030000	0.080000	0.080000	0.000000	OUTLET
S006-127#1	0.014000	0.030000	0.080000	0.080000	0.000000	OUTLET
S006-803#1	0.014000	0.030000	0.080000	0.080000	0.000000	OUTLET
S008-024#1	0.014000	0.030000	0.080000	0.080000	0.000000	OUTLET
S008-035#1	0.014000	0.030000	0.080000	0.080000	0.000000	OUTLET
S008-039#1	0.014000	0.030000	0.080000	0.080000	0.000000	OUTLET
S009-012#1	0.014000	0.030000	0.080000	0.080000	0.000000	OUTLET
S009-032#1	0.014000	0.030000	0.080000	0.080000	0.000000	OUTLET
S009-064#1	0.014000	0.030000	0.080000	0.080000	0.000000	OUTLET
S009-070#1	0.014000	0.030000	0.080000	0.080000	0.000000	OUTLET
S009-081#1	0.014000	0.030000	0.080000	0.080000	0.000000	OUTLET
S009-086#1	0.014000	0.030000	0.080000	0.080000	0.000000	OUTLET
S009-114#1	0.014000	0.030000	0.080000	0.080000	0.000000	OUTLET
S009-116#1	0.014000	0.030000	0.080000	0.080000	0.000000	OUTLET
S009-120#1	0.014000	0.030000	0.080000	0.080000	0.000000	OUTLET
S009-131#1	0.014000	0.030000	0.080000	0.080000	0.000000	OUTLET
S009-801#1	0.014000	0.030000	0.080000	0.080000	0.000000	OUTLET
S009-821#1	0.014000	0.030000	0.080000	0.080000	0.000000	OUTLET
S010-007#1	0.014000	0.030000	0.080000	0.080000	0.000000	OUTLET
S010-025#1	0.014000	0.030000	0.080000	0.080000	0.000000	OUTLET
S010-029#1	0.014000	0.030000	0.080000	0.080000	0.000000	OUTLET
S010-032#1	0.014000	0.030000	0.080000	0.080000	0.000000	OUTLET
S010-033#1	0.014000	0.030000	0.080000	0.080000	0.000000	OUTLET
S010-039#1	0.014000	0.030000	0.080000	0.080000	0.000000	OUTLET
S010-046#1	0.014000	0.030000	0.080000	0.080000	0.000000	OUTLET
S010-049#1	0.014000	0.030000	0.080000	0.080000	0.000000	OUTLET
S010-051#1	0.014000	0.030000	0.080000	0.080000	0.000000	OUTLET
S010-056#1	0.014000	0.030000	0.080000	0.080000	0.000000	OUTLET
S010-060#1	0.014000	0.030000	0.080000	0.080000	0.000000	OUTLET
S010-062#1	0.014000	0.030000	0.080000	0.080000	0.000000	OUTLET
S010-065#1	0.014000	0.030000	0.080000	0.080000	0.000000	OUTLET
S010-073#1	0.014000	0.030000	0.080000	0.080000	0.000000	OUTLET
S010-816#1	0.014000	0.030000	0.080000	0.080000	0.000000	OUTLET
S011-005#1	0.014000	0.030000	0.080000	0.080000	0.000000	OUTLET
S011-027#1	0.014000	0.030000	0.080000	0.080000	0.000000	OUTLET
S011-033#1	0.014000	0.030000	0.080000	0.080000	0.000000	OUTLET
S026-316#1	0.014000	0.030000	0.080000	0.080000	0.000000	OUTLET
S026-334#1	0.014000	0.030000	0.080000	0.080000	0.000000	OUTLET
S026-812#1	0.014000	0.030000	0.080000	0.080000	0.000000	OUTLET
S027-023#1	0.014000	0.030000	0.080000	0.080000	0.000000	OUTLET
S027-031#1	0.014000	0.030000	0.080000	0.080000	0.000000	OUTLET
S027-033#1	0.014000	0.030000	0.080000	0.080000	0.000000	OUTLET
S027-048#1	0.014000	0.030000	0.080000	0.080000	0.000000	OUTLET
S027-054#1	0.014000	0.030000	0.080000	0.080000	0.000000	OUTLET
S027-066#1	0.014000	0.030000	0.080000	0.080000	0.000000	OUTLET
S027-075#1	0.014000	0.030000	0.080000	0.080000	0.000000	OUTLET
S027-077#1	0.014000	0.030000	0.080000	0.080000	0.000000	OUTLET
S027-086#1	0.014000	0.030000	0.080000	0.080000	0.000000	OUTLET
S027-092#1	0.014000	0.030000	0.080000	0.080000	0.000000	OUTLET
S027-129#1	0.014000	0.030000	0.080000	0.080000	0.000000	OUTLET
S027-247#1	0.014000	0.030000	0.080000	0.080000	0.000000	OUTLET
S027-251#1	0.014000	0.030000	0.080000	0.080000	0.000000	OUTLET
S027-271#1	0.014000	0.030000	0.080000	0.080000	0.000000	OUTLET
S027-287#1	0.014000	0.030000	0.080000	0.080000	0.000000	OUTLET
S027-309#1	0.014000	0.030000	0.080000	0.080000	0.000000	OUTLET
S027-359#1	0.014000	0.030000	0.080000	0.080000	0.000000	OUTLET
S027-442#1	0.014000	0.030000	0.080000	0.080000	0.000000	OUTLET
S027-805#1	0.014000	0.030000	0.080000	0.080000	0.000000	OUTLET
S027-831#1	0.014000	0.030000	0.080000	0.080000	0.000000	OUTLET
S027-836#1	0.014000	0.030000	0.080000	0.080000	0.000000	OUTLET
S027-837#1	0.014000	0.030000	0.080000	0.080000	0.000000	OUTLET
S027-840#1	0.014000	0.030000	0.080000	0.080000	0.000000	OUTLET
S027-843#1	0.014000	0.030000	0.080000	0.080000	0.000000	OUTLET
S027-861#1	0.014000	0.030000	0.080000	0.080000	0.000000	OUTLET
S027-867#1	0.014000	0.030000	0.080000	0.080000	0.000000	OUTLET
S027-875#1	0.014000	0.030000	0.080000	0.080000	0.000000	OUTLET
S028-034#1	0.014000	0.030000	0.080000	0.080000	0.000000	OUTLET
S028-059#1	0.014000	0.030000	0.080000	0.080000	0.000000	OUTLET
S028-065#1	0.014000	0.030000	0.080000	0.080000	0.000000	OUTLET
S028-081#1	0.014000	0.030000	0.080000	0.080000	0.000000	OUTLET
S028-090#1	0.014000	0.030000	0.080000	0.080000	0.000000	OUTLET
S028-096#1	0.014000	0.030000	0.080000	0.080000	0.000000	OUTLET
S028-101#1	0.014000	0.030000	0.080000	0.080000	0.000000	OUTLET
S028-105#1	0.014000	0.030000	0.080000	0.080000	0.000000	OUTLET
S028-118#1	0.014000	0.030000	0.080000	0.080000	0.000000	OUTLET
S028-155#1	0.014000	0.030000	0.080000	0.080000	0.000000	OUTLET
S028-204#1	0.014000	0.030000	0.080000	0.080000	0.000000	OUTLET
S028-206#1	0.014000	0.030000	0.080000	0.080000	0.000000	OUTLET
S028-218#1	0.014000	0.030000	0.080000	0.080000	0.000000	OUTLET
S028-223#1	0.014000	0.030000	0.080000	0.080000	0.000000	OUTLET
S028-224#1	0.014000	0.030000	0.080000	0.080000	0.000000	OUTLET
S028-241#1	0.014000	0.030000	0.080000	0.080000	0.000000	OUTLET
S028-246#1	0.014000	0.030000	0.080000	0.080000	0.000000	OUTLET
S028-256#1	0.014000	0.030000	0.080000	0.080000	0.000000	OUTLET
S028-291#1	0.014000	0.030000	0.080000	0.080000	0.000000	OUTLET
S028-293#1	0.014000	0.030000	0.080000	0.080000	0.000000	OUTLET
S028-499#1	0.014000	0.030000	0.080000	0.080000	0.000000	OUTLET
S028-856#1	0.014000	0.030000	0.080000	0.080000	0.000000	OUTLET
S028-948#1	0.014000	0.030000	0.080000	0.080000	0.000000	OUTLET
S028-954#1	0.014000	0.030000	0.080000	0.080000	0.000000	OUTLET
S028-961#1	0.014000	0.030000	0.080000	0.080000	0.000000	OUTLET
S031-069#1	0.014000	0.030000	0.080000	0.080000	0.000000	OUTLET
S031-075#1	0.014000	0.030000	0.080000	0.080000	0.000000	OUTLET
S031-085#1	0.014000	0.030000	0.080000	0.080000	0.000000	OUTLET
S031-086#1	0.014000	0.030000	0.080000	0.080000	0.000000	OUTLET
S031-087#1	0.014000	0.030000	0.080000	0.080000	0.000000	OUTLET
S031-219#1	0.014000	0.030000	0.080000	0.080000	0.000000	OUTLET
S031-236#1	0.014000	0.030000	0.080000	0.080000	0.000000	OUTLET
S031-247#1	0.014000	0.030000	0.080000	0.080000	0.000000	OUTLET
S031-252#1	0.014000	0.030000	0.080000	0.080000	0.000000	OUTLET
S031-265#1	0.014000	0.030000	0.080000	0.080000	0.000000	OUTLET
S031-276#1	0.014000	0.030000	0.080000	0.080000	0.000000	OUTLET
S031-294#1	0.014000	0.030000	0.080000	0.080000	0.000000	OUTLET
S031-475#1	0.014000	0.030000	0.080000	0.080000	0.000000	OUTLET
S031-479#1	0.014000	0.030000	0.080000	0.080000	0.000000	OUTLET
S031-482#1	0.014000	0.030000	0.080000	0.080000	0.000000	OUTLET
S031-484#1	0.014000	0.030000	0.080000	0.080000	0.000000	OUTLET
S031-485#1	0.014000	0.030000	0.080000	0.080000	0.000000	OUTLET
S031-489#1	0.014000	0.030000	0.080000	0.080000	0.000000	OUTLET
S031-493#1	0.014000	0.030000	0.080000	0.080000	0.000000	OUTLET
S031-495#1	0.014000	0.030000	0.080000	0.080000	0.000000	OUTLET
S031-505#1	0.014000	0.030000	0.080000	0.080000	0.000000	OUTLET
S031-507#1	0.014000	0.030000	0.080000	0.080000	0.000000	OUTLET
S031-512#1	0.014000	0.030000	0.080000	0.080000	0.000000	OUTLET
S031-529#1	0.014000	0.030000	0.080000	0.080000	0.000000	OUTLET
S031-536#1	0.014000	0.030000	0.080000	0.080000	0.000000	OUTLET
S031-545#1	0.014000	0.030000	0.080000	0.080000	0.000000	OUTLET
S031-709#1	0.014000	0.030000	0.080000	0.080000	0.000000	OUTLET
S031-767#1	0.014000	0.030000	0.080000	0.080000	0.000000	OUTLET
S031-772#1	0.014000	0.030000	0.080000	0.080000	0.000000	OUTLET
S031-774#1	0.014000	0.030000	0.080000	0.080000	0.000000	OUTLET
S031-776#1	0.014000	0.030000	0.080000	0.080000	0.000000	OUTLET
S031-880#1	0.014000	0.030000	0.080000	0.080000	0.000000	OUTLET
S031-908#1	0.014000	0.030000	0.080000	0.080000	0.000000	OUTLET
S031-910#1	0.014000	0.030000	0.080000	0.080000	0.000000	OUTLET
S031-915#1	0.014000	0.030000	0.080000	0.080000	0.000000	OUTLET
S031-971#1	0.014000	0.030000	0.080000	0.080000	0.000000	OUTLET
S032-129#1	0.014000	0.030000	0.080000	0.080000	0.000000	OUTLET
S032-137#1	0.014000	0.030000	0.080000	0.080000	0.000000	OUTLET
S032-142#1	0.014000	0.030000	0.080000	0.080000	0.000000	OUTLET
S032-291#1	0.014000	0.030000	0.080000	0.080000	0.000000	OUTLET
S032-293#1	0.014000	0.030000	0.080000	0.080000	0.000000	OUTLET
S032-295#1	0.014000	0.030000	0.080000	0.080000	0.000000	OUTLET
S032-308#1	0.014000	0.030000	0.080000	0.080000	0.000000	OUTLET
S032-310#1	0.014000	0.030000	0.080000	0.080000	0.000000	OUTLET

[INFILTRATION]
S006-001#1	6.570000	0.260000	0.320000
S006-006#1	6.570000	0.260000	0.320000
S006-011#1	10.740000	0.040000	0.240000
S006-013#1	10.740000	0.040000	0.240000
S006-017#1	11.500000	0.020000	0.240000
S006-020#1	10.740000	0.040000	0.240000
S006-021#1	10.740000	0.040000	0.240000
S006-027#1	10.740000	0.040000	0.240000
S006-031#1	10.740000	0.040000	0.240000
S006-033#1	10.740000	0.040000	0.240000
S006-035#1	6.570000	0.260000	0.320000
S006-037#1	11.500000	0.020000	0.240000
S006-038#1	6.570000	0.260000	0.320000
S006-042#1	6.570000	0.260000	0.320000
S006-044#1	11.500000	0.020000	0.240000
S006-061#1	11.500000	0.020000	0.240000
S006-106#1	11.500000	0.020000	0.240000
S006-127#1	10.740000	0.040000	0.240000
S006-803#1	10.740000	0.040000	0.240000
S008-024#1	10.740000	0.040000	0.240000
S008-035#1	10.740000	0.040000	0.240000
S008-039#1	10.740000	0.040000	0.240000
S009-012#1	10.740000	0.040000	0.240000
S009-032#1	10.740000	0.040000	0.240000
S009-064#1	10.740000	0.040000	0.240000
S009-070#1	10.740000	0.040000	0.240000
S009-081#1	10.740000	0.040000	0.240000
S009-086#1	10.740000	0.040000	0.240000
S009-114#1	10.740000	0.040000	0.240000
S009-116#1	10.740000	0.040000	0.240000
S009-120#1	10.740000	0.040000	0.240000
S009-131#1	6.570000	0.260000	0.320000
S009-801#1	10.740000	0.040000	0.240000
S009-821#1	10.740000	0.040000	0.240000
S010-007#1	10.740000	0.040000	0.240000
S010-025#1	6.570000	0.260000	0.320000
S010-029#1	10.740000	0.040000	0.240000
S010-032#1	10.740000	0.040000	0.240000
S010-033#1	6.570000	0.260000	0.320000
S010-039#1	10.740000	0.040000	0.240000
S010-046#1	10.740000	0.040000	0.240000
S010-049#1	10.740000	0.040000	0.240000
S010-051#1	10.740000	0.040000	0.240000
S010-056#1	10.740000	0.040000	0.240000
S010-060#1	10.740000	0.040000	0.240000
S010-062#1	10.740000	0.040000	0.240000
S010-065#1	10.740000	0.040000	0.240000
S010-073#1	10.740000	0.040000	0.240000
S010-816#1	6.570000	0.260000	0.320000
S011-005#1	10.740000	0.040000	0.240000
S011-027#1	11.500000	0.020000	0.240000
S011-033#1	11.500000	0.020000	0.240000
S026-316#1	10.740000	0.040000	0.240000
S026-334#1	10.740000	0.040000	0.240000
S026-812#1	10.740000	0.040000	0.240000
S027-023#1	6.570000	0.260000	0.320000
S027-031#1	6.570000	0.260000	0.320000
S027-033#1	6.570000	0.260000	0.320000
S027-048#1	6.570000	0.260000	0.320000
S027-054#1	6.570000	0.260000	0.320000
S027-066#1	6.570000	0.260000	0.320000
S027-075#1	6.570000	0.260000	0.320000
S027-077#1	6.570000	0.260000	0.320000
S027-086#1	10.740000	0.040000	0.240000
S027-092#1	10.740000	0.040000	0.240000
S027-129#1	6.570000	0.260000	0.320000
S027-247#1	6.570000	0.260000	0.320000
S027-251#1	6.570000	0.260000	0.320000
S027-271#1	6.570000	0.260000	0.320000
S027-287#1	10.740000	0.040000	0.240000
S027-309#1	10.740000	0.040000	0.240000
S027-359#1	6.570000	0.260000	0.320000
S027-442#1	6.570000	0.260000	0.320000
S027-805#1	10.740000	0.040000	0.240000
S027-831#1	6.570000	0.260000	0.320000
S027-836#1	6.570000	0.260000	0.320000
S027-837#1	6.570000	0.260000	0.320000
S027-840#1	6.570000	0.260000	0.320000
S027-843#1	6.570000	0.260000	0.320000
S027-861#1	10.740000	0.040000	0.240000
S027-867#1	10.740000	0.040000	0.240000
S027-875#1	6.570000	0.260000	0.320000
S028-034#1	10.740000	0.040000	0.240000
S028-059#1	10.740000	0.040000	0.240000
S028-065#1	10.740000	0.040000	0.240000
S028-081#1	10.740000	0.040000	0.240000
S028-090#1	10.740000	0.040000	0.240000
S028-096#1	10.740000	0.040000	0.240000
S028-101#1	10.740000	0.040000	0.240000
S028-105#1	10.740000	0.040000	0.240000
S028-118#1	10.740000	0.040000	0.240000
S028-155#1	10.740000	0.040000	0.240000
S028-204#1	6.570000	0.260000	0.320000
S028-206#1	10.740000	0.040000	0.240000
S028-218#1	6.570000	0.260000	0.320000
S028-223#1	6.570000	0.260000	0.320000
S028-224#1	6.570000	0.260000	0.320000
S028-241#1	6.570000	0.260000	0.320000
S028-246#1	10.740000	0.040000	0.240000
S028-256#1	10.740000	0.040000	0.240000
S028-291#1	10.740000	0.040000	0.240000
S028-293#1	10.740000	0.040000	0.240000
S028-499#1	10.740000	0.040000	0.240000
S028-856#1	10.740000	0.040000	0.240000
S028-948#1	10.740000	0.040000	0.240000
S028-954#1	10.740000	0.040000	0.240000
S028-961#1	10.740000	0.040000	0.240000
S031-069#1	10.740000	0.040000	0.240000
S031-075#1	10.740000	0.040000	0.240000
S031-085#1	10.740000	0.040000	0.240000
S031-086#1	10.740000	0.040000	0.240000
S031-087#1	10.740000	0.040000	0.240000
S031-219#1	10.740000	0.040000	0.240000
S031-236#1	10.740000	0.040000	0.240000
S031-247#1	10.740000	0.040000	0.240000
S031-252#1	10.740000	0.040000	0.240000
S031-265#1	10.740000	0.040000	0.240000
S031-276#1	10.740000	0.040000	0.240000
S031-294#1	10.740000	0.040000	0.240000
S031-475#1	10.740000	0.040000	0.240000
S031-479#1	10.740000	0.040000	0.240000
S031-482#1	10.740000	0.040000	0.240000
S031-484#1	10.740000	0.040000	0.240000
S031-485#1	10.740000	0.040000	0.240000
S031-489#1	10.740000	0.040000	0.240000
S031-493#1	10.740000	0.040000	0.240000
S031-495#1	10.740000	0.040000	0.240000
S031-505#1	10.740000	0.040000	0.240000
S031-507#1	6.570000	0.260000	0.320000
S031-512#1	10.740000	0.040000	0.240000
S031-529#1	6.570000	0.260000	0.320000
S031-536#1	10.740000	0.040000	0.240000
S031-545#1	10.740000	0.040000	0.240000
S031-709#1	10.740000	0.040000	0.240000
S031-767#1	10.740000	0.040000	0.240000
S031-772#1	10.740000	0.040000	0.240000
S031-774#1	10.740000	0.040000	0.240000
S031-776#1	10.740000	0.040000	0.240000
S031-880#1	10.740000	0.040000	0.240000
S031-908#1	10.740000	0.040000	0.240000
S031-910#1	10.740000	0.040000	0.240000
S031-915#1	10.740000	0.040000	0.240000
S031-971#1	10.740000	0.040000	0.240000
S032-129#1	6.570000	0.260000	0.320000
S032-137#1	6.570000	0.260000	0.320000
S032-142#1	6.570000	0.260000	0.320000
S032-291#1	6.570000	0.260000	0.320000
S032-293#1	6.570000	0.260000	0.320000
S032-295#1	6.570000	0.260000	0.320000
S032-308#1	6.570000	0.260000	0.320000
S032-310#1	6.570000	0.260000	0.320000

[AQUIFERS]

[GROUNDWATER]

[SNOWPACKS]

[JUNCTIONS]
N1	804.000000	14.420000	0.000000	0.000000	0.000000
N10	805.150000	7.400000	0.000000	0.000000	0.000000
N11	804.550000	7.750000	0.000000	0.000000	0.000000
N12	801.000000	9.950000	0.000000	0.000000	0.000000
N13	796.500000	7.950000	0.000000	0.000000	0.000000
N14	779.500000	16.350000	0.000000	0.000000	0.000000
N15	778.550000	16.650000	0.000000	0.000000	0.000000
N2	802.600000	15.170000	0.000000	0.000000	0.000000
N3	799.000000	15.330000	0.000000	0.000000	0.000000
N4	795.000000	16.050000	0.000000	0.000000	0.000000
N5	783.700000	12.230000	0.000000	0.000000	0.000000
N6	814.000000	4.100000	0.000000	0.000000	0.000000
N7	812.550000	5.050000	0.000000	0.000000	0.000000
N8	809.300000	7.800000	0.000000	0.000000	0.000000
N9	807.000000	8.750000	0.000000	0.000000	0.000000
NEIDPS_SG	709.600000	30.400000	0.000000	0.000000	0.000000
S005-005	727.500000	6.500000	0.000000	0.000000	0.000000
S005-006	727.000000	9.000000	0.000000	0.000000	0.000000
S005-007	726.521000	9.400000	0.000000	0.000000	0.000000
S005-008	725.700000	8.300000	0.000000	0.000000	0.000000
S005-009	725.000000	9.000000	0.000000	0.000000	0.000000
S005-835	723.991000	12.000000	0.000000	0.000000	0.000000
S006-001	722.770000	13.230000	0.000000	0.000000	0.000000
S006-003	722.090000	14.950000	0.000000	0.000000	0.000000
S006-006	722.190000	14.450000	0.000000	0.000000	0.000000
S006-008	721.730000	13.220000	0.000000	0.000000	0.000000
S006-011	721.440000	14.450000	0.000000	0.000000	0.000000
S006-013	721.680000	19.600000	0.000000	0.000000	0.000000
S006-014	721.500000	16.500000	0.000000	0.000000	0.000000
S006-015	721.949000	17.070000	0.000000	0.000000	0.000000
S006-016	721.257000	18.000000	0.000000	0.000000	0.000000
S006-017	720.829000	12.500000	0.000000	0.000000	0.000000
S006-018	721.940000	14.100000	0.000000	0.000000	0.000000
S006-018TA	721.700000	14.300000	0.000000	0.000000	0.000000
S006-019	720.580000	14.600000	0.000000	0.000000	0.000000
S006-019TA	720.523000	14.500000	0.000000	0.000000	0.000000
S006-020	722.350000	14.000000	0.000000	0.000000	0.000000
S006-021	722.840000	15.160000	0.000000	0.000000	0.000000
S006-022	725.940000	11.400000	0.000000	0.000000	0.000000