[TITLE]
Scenario Run :  BASE

[OPTIONS]
;Option and Files Scenario Set: BASE, Base Simulation Options
FLOW_UNITS	CMS
INFILTRATION	HORTON
FLOW_ROUTING	DYNWAVE
ALLOW_PONDING	NO
DRY_DAYS	0.000000
SKIP_STEADY_STATE 	NO
IGNORE_RAINFALL	NO
IGNORE_SNOWMELT	NO
IGNORE_GROUNDWATER	NO
IGNORE_QUALITY	NO
FORCE_MAIN_EQUATION	H-W
LINK_OFFSETS	DEPTH
MIN_SLOPE	0.000000
SYS_FLOW_TOL	5
LAT_FLOW_TOL	5
START_DATE	09/09/2016
START_TIME	00:00
END_DATE	09/09/2016
END_TIME	04:00
REPORT_START_DATE	09/09/2016
REPORT_START_TIME	00:00
SWEEP_START	01/01
SWEEP_END	12/31
WET_STEP	00:05:00
DRY_STEP	00:05:00
ROUTING_STEP	5
REPORT_STEP	00:01:00
INERTIAL_DAMPING	NONE
VARIABLE_STEP	0.750000
MINIMUM_STEP	0.000000
LENGTHENING_STEP	1
MIN_SURFAREA	1.000000
NORMAL_FLOW_LIMITED	SLOPE
MAX_TRIALS	8
HEAD_TOLERANCE	0.001000

[FILES]

[RAINGAGES]

[HYDROGRAPHS]

[EVAPORATION]
CONSTANT	0.000000
DRY_ONLY	NO

[TEMPERATURE]

[ADJUSTMENTS]

[SUBCATCHMENTS]

[SUBAREAS]

[INFILTRATION]

[AQUIFERS]

[GROUNDWATER]

[GWF]

[SNOWPACKS]

[JUNCTIONS]
4	0.000000	0.000000	0.000000	0.000000	0.000000
A1	8.326000	11.674000	0.000000	0.000000	0.000000
ABREAK2	0.587000	20.000000	0.000000	0.000000	0.000000
AMID1	1.494500	20.000000	0.000000	0.000000	0.000000
AMID2	0.889500	20.000000	0.000000	0.000000	0.000000
AMID3	1.645750	20.000000	0.000000	0.000000	0.000000
AMID4	1.343250	20.000000	0.000000	0.000000	0.000000
AMID5	1.040750	20.000000	0.000000	0.000000	0.000000
AMID6	0.738250	20.000000	0.000000	0.000000	0.000000
BREAK	1.797000	20.000000	0.000000	0.000000	0.000000
MIDTUNNEL	1.192000	20.000000	0.000000	0.000000	0.000000

[OUTFALLS]
A2	5.437000	FREE	NO
A9	0.400000	FREE	NO

[DIVIDERS]

[STORAGE]
AST1	1.797000	20.000000	0.000000	TABULAR	STORAGE	0.000000	0.000000
AST2	0.587000	20.000000	0.000000	TABULAR	STORAGE	0.000000	0.000000

[CONDUITS]
AIN	A1	AST1	100.000000	0.013000	0.000000	6.154000	0.000000	0.000000
AOUT	AST1	A2	100.000000	0.013000	6.150000	0.000000	0.000000	0.000000
ATUNNEL	BREAK	AMID3	60.000000	0.013000	0.000000	0.000000	0.000000	0.000000
; New Conduit
CDT-11	MIDTUNNEL	AMID5	60.000000	0.013000	0.000000	0.000000	0.000000	0.000000
; New Conduit
CDT-13	AMID1	AMID4	60.000000	0.013000	0.000000	0.000000	0.000000	0.000000
; New Conduit
CDT-15	AMID2	AMID6	60.000000	0.013000	0.000000	0.000000	0.000000	0.000000
; New Conduit
CDT-17	AMID3	AMID1	60.000000	0.013000	0.000000	0.000000	0.000000	0.000000
; New Conduit
CDT-19	AMID4	MIDTUNNEL	60.000000	0.013000	0.000000	0.000000	0.000000	0.000000
; New Conduit
CDT-21	AMID5	AMID2	60.000000	0.013000	0.000000	0.000000	0.000000	0.000000
; New Conduit
CDT-23	AMID6	ABREAK2	60.000000	0.013000	0.000000	0.000000	0.000000	0.000000
DNLINK	ABREAK2	AST2	10.000000	0.013000	0.000000	0.000000	0.000000	0.000000
UPLINK	AST1	BREAK	10.000000	0.013000	0.000000	0.000000	0.000000	0.000000

[PUMPS]

[ORIFICES]
AGATE	AST2	A9	SIDE	0.000000	0.600000	NO

[WEIRS]

[XSECTIONS]
AIN	CIRCULAR	1.000000	0.000000	0.000000	0.000000	1	0
AOUT	CIRCULAR	1.000000	0.000000	0.000000	0.000000	1	0
ATUNNEL	RECT_CLOSED	2.000000	2.000000	0.000000	0.000000	1	0
CDT-11	RECT_CLOSED	2.000000	2.000000	0.000000	0.000000	1	0
CDT-13	RECT_CLOSED	2.000000	2.000000	0.000000	0.000000	1	0
CDT-15	RECT_CLOSED	2.000000	2.000000	0.000000	0.000000	1	0
CDT-17	RECT_CLOSED	2.000000	2.000000	0.000000	0.000000	1	0
CDT-19	RECT_CLOSED	2.000000	2.000000	0.000000	0.000000	1	0
CDT-21	RECT_CLOSED	2.000000	2.000000	0.000000	0.000000	1	0
CDT-23	RECT_CLOSED	2.000000	2.000000	0.000000	0.000000	1	0
DNLINK	RECT_CLOSED	2.000000	2.000000	0.000000	0.000000	1	0
UPLINK	RECT_CLOSED	2.000000	2.000000	0.000000	0.000000	1	0
AGATE	CIRCULAR	0.300000	0.000000	0.000000	0.000000

[TRANSECTS]

[LOSSES]
AIN	0.000000	0.000000	0.000000	NO	0.000000
AOUT	0.000000	0.000000	0.000000	NO	0.000000
ATUNNEL	0.000000	0.000000	0.000000	NO	0.000000
CDT-11	0.000000	0.000000	0.000000	NO	0.000000
CDT-13	0.000000	0.000000	0.000000	NO	0.000000
CDT-15	0.000000	0.000000	0.000000	NO	0.000000
CDT-17	0.000000	0.000000	0.000000	NO	0.000000
CDT-19	0.000000	0.000000	0.000000	NO	0.000000
CDT-21	0.000000	0.000000	0.000000	NO	0.000000
CDT-23	0.000000	0.000000	0.000000	NO	0.000000
DNLINK	0.000000	0.000000	0.000000	NO	0.000000
UPLINK	0.000000	0.000000	0.000000	NO	0.000000

[CONTROLS]

[POLLUTANTS]

[LANDUSES]

[COVERAGES]

[BUILDUP]

[WASHOFF]

[TREATMENT]

[INFLOWS]
A1	FLOW	""	FLOW  1.0	1.000000	1.000000

[DWF]

[RDII]

[LOADINGS]

[CURVES]
; 
SLOT1MM_10M	SHAPE	0.000000	0.200000
SLOT1MM_10M	0.200000	0.100050
SLOT1MM_10M	1.000000	0.000100
; 
STORAGE	STORAGE	0.000000	4.000000
STORAGE	20.000000	4.000000

[TIMESERIES]
CALGARY_1H-5Y	0:00	0.000000
CALGARY_1H-5Y	0:05	7.622000
CALGARY_1H-5Y	0:10	10.866000
CALGARY_1H-5Y	0:15	23.029000
CALGARY_1H-5Y	0:20	87.477000
CALGARY_1H-5Y	0:25	30.772000
CALGARY_1H-5Y	0:30	18.142000
CALGARY_1H-5Y	0:35	13.306000
CALGARY_1H-5Y	0:40	10.695000
CALGARY_1H-5Y	0:45	9.040000
CALGARY_1H-5Y	0:50	7.887000
CALGARY_1H-5Y	0:55	7.032000
CALGARY_1H-5Y	1:00	6.371000


[PATTERNS]

[REPORT]
;Report Option Set: BASE, Base Simulation Report
INPUT YES
CONTINUITY YES
FLOWSTATS YES
CONTROLS NO
SUBCATCHMENTS  ALL
NODES  ALL
LINKS  ALL

[COORDINATES]
4	-313.218000	212.992000
A1	-313.218000	212.992000
A2	-284.563000	295.634000
A9	195.504000	214.238000
ABREAK2	75.332000	194.305000
AMID1	-184.177701	224.810830
AMID2	-10.298979	205.051884
AMID3	-225.146186	229.309056
AMID4	-139.837979	219.006133
AMID5	-53.293421	210.351677
AMID6	32.839019	200.048753
AST1	-295.776000	256.182000
AST2	115.354000	220.052000
BREAK	-271.756000	234.723000
MIDTUNNEL	-96.360165	214.711813


[POLYGONS]

[VERTICES]


[SYMBOLS]

[MAP]
DIMENSIONS	-338.654100	189.238550	220.940100	300.700450

