[OPTIONS]
;Option and Files Scenario Set: BASE, Base Simulation Options
FLOW_UNITS	CFS
INFILTRATION	HORTON
FLOW_ROUTING	DYNWAVE
ALLOW_PONDING	NO
DRY_DAYS	5.000000
SKIP_STEADY_STATE 	NO
IGNORE_RAINFALL	NO
IGNORE_SNOWMELT	NO
IGNORE_GROUNDWATER	NO
IGNORE_QUALITY	NO
FORCE_MAIN_EQUATION	H-W
LINK_OFFSETS	DEPTH
MIN_SLOPE	0.000000
START_DATE	01/01/2002
START_TIME	00:00
END_DATE	01/01/2002
END_TIME	23:00
REPORT_START_DATE	01/01/2002
REPORT_START_TIME	00:00
SWEEP_START	01/01
SWEEP_END	12/31
WET_STEP	01:00:00
DRY_STEP	23:00:00
ROUTING_STEP	300
REPORT_STEP	00:05:00
INERTIAL_DAMPING	PARTIAL
VARIABLE_STEP	0.000000
MINIMUM_STEP	0.5
LENGTHENING_STEP	0
MIN_SURFAREA	0.000000
NORMAL_FLOW_LIMITED	SLOPE

[FILES]

[RAINGAGES]

[HYDROGRAPHS]

[TEMPERATURE]

[ADJUSTMENTS]

[SUBCATCHMENTS]

[SUBAREAS]

[INFILTRATION]

[AQUIFERS]

[GROUNDWATER]

[GWF]

[SNOWPACKS]

[JUNCTIONS]
072-00001Y	48.850000	4.000000	0.000000	0.000000	0.000000
133-00001	50.800000	4.000000	0.000000	0.000000	0.000000
133-00002	49.280000	4.000000	0.000000	0.000000	0.000000
133-00003	49.590000	4.000000	0.000000	0.000000	0.000000
133-00004	49.965000	4.000000	0.000000	0.000000	0.000000
133-00005	50.340000	4.000000	0.000000	0.000000	0.000000
133-00006	50.715000	4.000000	0.000000	0.000000	0.000000
133-00007	51.040000	4.000000	0.000000	0.000000	0.000000
133-00008	51.365000	4.000000	0.000000	0.000000	0.000000
133-00009	51.600000	4.000000	0.000000	0.000000	0.000000
133-00010	51.835000	4.000000	0.000000	0.000000	0.000000
133-00011	51.955000	4.000000	0.000000	0.000000	0.000000
133-00012	51.515000	4.000000	0.000000	0.000000	0.000000
133-00013	51.677000	4.000000	0.000000	0.000000	0.000000
133-00014	51.677000	4.000000	0.000000	0.000000	0.000000
133-00015	51.839000	4.000000	0.000000	0.000000	0.000000
133-00016	52.007000	4.000000	0.000000	0.000000	0.000000
133-00017	52.337000	4.000000	0.000000	0.000000	0.000000
133-00018	52.457000	4.000000	0.000000	0.000000	0.000000
133-00019	50.912000	4.000000	0.000000	0.000000	0.000000
133-00020	51.092000	4.000000	0.000000	0.000000	0.000000
133-00021	51.412000	4.000000	0.000000	0.000000	0.000000
133-00022	51.732000	4.000000	0.000000	0.000000	0.000000
133-00023	52.052000	4.000000	0.000000	0.000000	0.000000
133-00024	52.352000	4.000000	0.000000	0.000000	0.000000
133-00025	51.412000	4.000000	0.000000	0.000000	0.000000
133-00026	51.712000	4.000000	0.000000	0.000000	0.000000
133-00027	52.002000	4.000000	0.000000	0.000000	0.000000
133-00028	52.292000	4.000000	0.000000	0.000000	0.000000
133-00029	52.617000	4.000000	0.000000	0.000000	0.000000
133-00030	51.561000	4.000000	0.000000	0.000000	0.000000
133-00030A	51.637000	4.000000	0.000000	0.000000	0.000000
133-00031	51.886000	4.000000	0.000000	0.000000	0.000000
133-00032	52.211000	4.000000	0.000000	0.000000	0.000000
133-00033	52.536000	4.000000	0.000000	0.000000	0.000000

[OUTFALLS]
072-00001Z	48.500000	FREE	NO

[DIVIDERS]

[STORAGE]

[CONDUITS]
300039	133-00001	072-00001Y	100.000000	0.010000	0.000000	0.000000	0.000000	0.000000
300040	072-00001Y	072-00001Z	100.000000	0.010000	0.000000	0.000000	0.000000	0.000000
300041	133-00002	072-00001Y	100.000000	0.010000	0.000000	0.000000	0.000000	0.000000
305928	133-00030A	133-00030	76.000000	0.010000	0.000000	0.000000	0.000000	0.000000
31018	133-00006	133-00005	375.000000	0.010000	0.000000	0.000000	0.000000	0.000000
31019	133-00005	133-00004	375.000000	0.010000	0.000000	0.000000	0.000000	0.000000
31023	133-00004	133-00003	375.000000	0.010000	0.000000	0.000000	0.000000	0.000000
31028	133-00003	133-00002	310.000000	0.010000	0.000000	0.000000	0.000000	0.000000
31030	133-00019	133-00001	112.000000	0.010000	0.000000	0.000000	0.000000	0.000000
31033	133-00021	133-00020	320.000000	0.010000	0.000000	0.000000	0.000000	0.000000
31034	133-00020	133-00019	180.000000	0.010000	0.000000	0.000000	0.000000	0.000000
31035	133-00025	133-00020	320.000000	0.010000	0.000000	0.000000	0.000000	0.000000
31038	133-00022	133-00021	320.000000	0.010000	0.000000	0.000000	0.000000	0.000000
31039	133-00024	133-00023	300.000000	0.010000	0.000000	0.000000	0.000000	0.000000
31040	133-00023	133-00022	320.000000	0.010000	0.000000	0.000000	0.000000	0.000000
31041	133-00007	133-00006	325.000000	0.010000	0.000000	0.000000	0.000000	0.000000
31042	133-00009	133-00008	235.000000	0.010000	0.000000	0.000000	0.000000	0.000000
31043	133-00008	133-00007	325.000000	0.010000	0.000000	0.000000	0.000000	0.000000
31044	133-00012	133-00008	150.000000	0.010000	0.000000	0.000000	0.000000	0.000000
31045	133-00013	133-00012	162.000000	0.010000	0.000000	0.000000	0.000000	0.000000
31046	133-00010	133-00009	235.000000	0.010000	0.000000	0.000000	0.000000	0.000000
31047	133-00011	133-00010	120.000000	0.010000	0.000000	0.000000	0.000000	0.000000
31048	133-00018	133-00017	120.000000	0.010000	0.000000	0.000000	0.000000	0.000000
31049	133-00017	133-00016	330.000000	0.010000	0.000000	0.000000	0.000000	0.000000
31050	133-00016	133-00014	330.000000	0.010000	0.000000	0.000000	0.000000	0.000000
31051	133-00014	133-00012	162.000000	0.010000	0.000000	0.000000	0.000000	0.000000
31052	133-00015	133-00014	162.000000	0.010000	0.000000	0.000000	0.000000	0.000000
31053	133-00029	133-00028	325.000000	0.010000	0.000000	0.000000	0.000000	0.000000
31054	133-00015	133-00033	325.000000	0.010000	0.000000	0.000000	0.000000	0.000000
31055	133-00033	133-00032	325.000000	0.010000	0.000000	0.000000	0.000000	0.000000
31056	133-00028	133-00027	290.000000	0.010000	0.000000	0.000000	0.000000	0.000000
31057	133-00027	133-00026	290.000000	0.010000	0.000000	0.000000	0.000000	0.000000
31058	133-00032	133-00031	325.000000	0.010000	0.000000	0.000000	0.000000	0.000000
31059	133-00026	133-00025	300.000000	0.010000	0.000000	0.000000	0.000000	0.000000
31060	133-00030	133-00025	149.000000	0.010000	0.000000	0.000000	0.000000	0.000000
31061	133-00031	133-00030	325.000000	0.010000	0.000000	0.000000	0.000000	0.000000

[PUMPS]

[ORIFICES]

[WEIRS]

[XSECTIONS]
300039	CIRCULAR	0.670000	0.000000	0.000000	0.000000	1	0
300040	CIRCULAR	0.670000	0.000000	0.000000	0.000000	1	0
300041	CIRCULAR	0.670000	0.000000	0.000000	0.000000	1	0
305928	CIRCULAR	0.666667	0.000000	0.000000	0.000000	1	0
31018	CIRCULAR	0.666667	0.000000	0.000000	0.000000	1	0
31019	CIRCULAR	0.666667	0.000000	0.000000	0.000000	1	0
31023	CIRCULAR	0.666667	0.000000	0.000000	0.000000	1	0
31028	CIRCULAR	0.666667	0.000000	0.000000	0.000000	1	0
31030	CIRCULAR	0.666667	0.000000	0.000000	0.000000	1	0
31033	CIRCULAR	0.666667	0.000000	0.000000	0.000000	1	0
31034	CIRCULAR	0.666667	0.000000	0.000000	0.000000	1	0
31035	CIRCULAR	0.666667	0.000000	0.000000	0.000000	1	0
31038	CIRCULAR	0.666667	0.000000	0.000000	0.000000	1	0
31039	CIRCULAR	0.666667	0.000000	0.000000	0.000000	1	0
31040	CIRCULAR	0.666667	0.000000	0.000000	0.000000	1	0
31041	CIRCULAR	0.666667	0.000000	0.000000	0.000000	1	0
31042	CIRCULAR	0.666667	0.000000	0.000000	0.000000	1	0
31043	CIRCULAR	0.666667	0.000000	0.000000	0.000000	1	0
31044	CIRCULAR	0.666667	0.000000	0.000000	0.000000	1	0
31045	CIRCULAR	0.666667	0.000000	0.000000	0.000000	1	0
31046	CIRCULAR	0.666667	0.000000	0.000000	0.000000	1	0
31047	CIRCULAR	0.666667	0.000000	0.000000	0.000000	1	0
31048	CIRCULAR	0.666667	0.000000	0.000000	0.000000	1	0
31049	CIRCULAR	0.666667	0.000000	0.000000	0.000000	1	0
31050	CIRCULAR	0.666667	0.000000	0.000000	0.000000	1	0
31051	CIRCULAR	0.666667	0.000000	0.000000	0.000000	1	0
31052	CIRCULAR	0.666667	0.000000	0.000000	0.000000	1	0
31053	CIRCULAR	0.666667	0.000000	0.000000	0.000000	1	0
31054	CIRCULAR	0.666667	0.000000	0.000000	0.000000	1	0
31055	CIRCULAR	0.666667	0.000000	0.000000	0.000000	1	0
31056	CIRCULAR	0.666667	0.000000	0.000000	0.000000	1	0
31057	CIRCULAR	0.666667	0.000000	0.000000	0.000000	1	0
31058	CIRCULAR	0.666667	0.000000	0.000000	0.000000	1	0
31059	CIRCULAR	0.666667	0.000000	0.000000	0.000000	1	0
31060	CIRCULAR	0.666667	0.000000	0.000000	0.000000	1	0
31061	CIRCULAR	0.666667	0.000000	0.000000	0.000000	1	0

[TRANSECTS]

[LOSSES]
300039	0.000000	0.000000	0.000000	NO	0.000000
300040	0.000000	0.000000	0.000000	NO	0.000000
300041	0.000000	0.000000	0.000000	NO	0.000000
305928	0.000000	0.000000	0.000000	NO	0.000000
31018	0.000000	0.000000	0.000000	NO	0.000000
31019	0.000000	0.000000	0.000000	NO	0.000000
31023	0.000000	0.000000	0.000000	NO	0.000000
31028	0.000000	0.000000	0.000000	NO	0.000000
31030	0.000000	0.000000	0.000000	NO	0.000000
31033	0.000000	0.000000	0.000000	NO	0.000000
31034	0.000000	0.000000	0.000000	NO	0.000000
31035	0.000000	0.000000	0.000000	NO	0.000000
31038	0.000000	0.000000	0.000000	NO	0.000000
31039	0.000000	0.000000	0.000000	NO	0.000000
31040	0.000000	0.000000	0.000000	NO	0.000000
31041	0.000000	0.000000	0.000000	NO	0.000000
31042	0.000000	0.000000	0.000000	NO	0.000000
31043	0.000000	0.000000	0.000000	NO	0.000000
31044	0.000000	0.000000	0.000000	NO	0.000000
31045	0.000000	0.000000	0.000000	NO	0.000000
31046	0.000000	0.000000	0.000000	NO	0.000000
31047	0.000000	0.000000	0.000000	NO	0.000000
31048	0.000000	0.000000	0.000000	NO	0.000000
31049	0.000000	0.000000	0.000000	NO	0.000000
31050	0.000000	0.000000	0.000000	NO	0.000000
31051	0.000000	0.000000	0.000000	NO	0.000000
31052	0.000000	0.000000	0.000000	NO	0.000000
31053	0.000000	0.000000	0.000000	NO	0.000000
31054	0.000000	0.000000	0.000000	NO	0.000000
31055	0.000000	0.000000	0.000000	NO	0.000000
31056	0.000000	0.000000	0.000000	NO	0.000000
31057	0.000000	0.000000	0.000000	NO	0.000000
31058	0.000000	0.000000	0.000000	NO	0.000000
31059	0.000000	0.000000	0.000000	NO	0.000000
31060	0.000000	0.000000	0.000000	NO	0.000000
31061	0.000000	0.000000	0.000000	NO	0.000000

[CONTROLS]

[POLLUTANTS]

[LANDUSES]

[COVERAGES]

[BUILDUP]

[WASHOFF]

[TREATMENT]

[INFLOWS]

[DWF]
133-00011	FLOW	0.500000	"PATN-1"	""	""	""
133-00018	FLOW	1.000000	"PATN-1"	""	""	""

[RDII]

[LOADINGS]

[CURVES]
; 
BLOCK_BRICK	GENERAL	0.000000	0.000000
BLOCK_BRICK	55.000000	0.100000
BLOCK_BRICK	70.000000	0.300000
BLOCK_BRICK	80.000000	0.500000
BLOCK_BRICK	100.000000	2.000000
BLOCK_BRICK	120.000000	6.000000
; 
BLOCK_CONC	GENERAL	0.000000	0.800000
BLOCK_CONC	120.000000	4.000000
; 
BLOCK_PVC	GENERAL	0.000000	2.000000
BLOCK_PVC	120.000000	2.000000
; 
BLOCK_VCP	GENERAL	0.000000	0.500000
BLOCK_VCP	120.000000	4.800000
; 
COLLAPSE_BRICK	GENERAL	6.000000	0.100000
COLLAPSE_BRICK	18.000000	0.100000
COLLAPSE_BRICK	19.000000	0.060000
COLLAPSE_BRICK	100.000000	0.040000
; 
COLLAPSE_CONC	GENERAL	6.000000	0.300000
COLLAPSE_CONC	8.000000	0.180000
COLLAPSE_CONC	10.000000	0.100000
COLLAPSE_CONC	16.000000	0.060000
COLLAPSE_CONC	24.000000	0.050000
COLLAPSE_CONC	36.000000	0.020000
COLLAPSE_CONC	60.000000	0.010000
COLLAPSE_CONC	120.000000	0.010000
; 
COLLAPSE_PVC	GENERAL	6.000000	0.040000
COLLAPSE_PVC	10.000000	0.050000
COLLAPSE_PVC	24.000000	0.080000
COLLAPSE_PVC	36.000000	0.090000
COLLAPSE_PVC	60.000000	0.100000
COLLAPSE_PVC	120.000000	0.110000
; 
COLLAPSE_VCP	GENERAL	6.000000	0.200000
COLLAPSE_VCP	8.000000	0.120000
COLLAPSE_VCP	10.000000	0.090000
COLLAPSE_VCP	16.000000	0.060000
COLLAPSE_VCP	24.000000	0.050000
COLLAPSE_VCP	36.000000	0.030000
COLLAPSE_VCP	60.000000	0.020000
COLLAPSE_VCP	120.000000	0.010000
; Cost vs. Population impacted
CONSEQ_POPULATION	GENERAL	0.000000	0.000000
CONSEQ_POPULATION	50.000000	3.357527
CONSEQ_POPULATION	100.000000	6.740472
CONSEQ_POPULATION	150.000000	10.922168
CONSEQ_POPULATION	200.000000	17.547103
CONSEQ_POPULATION	250.000000	30.000000
CONSEQ_POPULATION	300.000000	40.000000
; 
CONSEQ_RESTAURANTS	GENERAL	0.000000	200.000000
CONSEQ_RESTAURANTS	20.000000	125.438049
CONSEQ_RESTAURANTS	40.000000	88.163004
CONSEQ_RESTAURANTS	60.000000	54.646788
CONSEQ_RESTAURANTS	80.000000	38.985004
CONSEQ_RESTAURANTS	100.000000	30.000000
; 
DEPTH	GENERAL	0.000000	50.000000
DEPTH	2.000000	100.000000
DEPTH	3.000000	150.000000

[TIMESERIES]
; New Time Series


[PATTERNS]
; New Pattern
PATN-1	HOURLY	0.000000	0.100000	0.200000	0.300000	0.400000
PATN-1	0.500000	0.600000	0.700000	0.800000	0.900000
PATN-1	1.000000	1.100000	1.200000	1.300000	1.400000
PATN-1	1.500000	1.600000	1.700000	1.800000	1.900000
PATN-1	2.000000	2.100000	2.200000	2.300000

[REPORT]
;Report Option Set: BASE, Base Simulation Report
INPUT NO
CONTINUITY YES
FLOWSTATS YES
CONTROLS NO
SUBCATCHMENTS  ALL
NODES  ALL
LINKS  ALL

[COORDINATES]
072-00001Y	1034783.182735	1859238.744078
072-00001Z	1035076.877715	1858698.598674
133-00001	1034808.072432	1859383.592283
133-00002	1034708.751508	1858778.075136
133-00003	1034340.618685	1858788.133409
133-00004	1033879.949743	1858802.214993
133-00005	1033425.315765	1858804.226648
133-00006	1033427.327420	1859095.916589
133-00007	1033447.443967	1859548.538912
133-00008	1032978.728406	1859564.632151
133-00009	1032516.047809	1859582.737044
133-00010	1032532.141047	1859981.044688
133-00011	1032546.222630	1860391.422261
133-00012	1032996.833299	1859964.951450
133-00013	1032687.038464	1859979.033033
133-00014	1033022.984811	1860755.531774
133-00015	1033485.665408	1860739.438536
133-00016	1032562.315869	1860775.648322
133-00017	1032574.385797	1861103.548050
133-00018	1032589.473208	1861499.844039
133-00019	1034367.039777	1859379.886126
133-00020	1034368.892855	1859520.720083
133-00021	1033909.329417	1859535.544710
133-00022	1033922.300966	1859930.250405
133-00023	1033459.031371	1859948.781189
133-00024	1033464.590606	1860161.885203
133-00025	1034381.864404	1859911.719621
133-00026	1034398.542110	1860310.131473
133-00027	1033940.831750	1860326.809178
133-00028	1033712.903109	1860341.633805
133-00029	1033473.855998	1860349.046119
133-00030	1034848.840156	1859902.454229
133-00030A	1034828.456294	1859511.454691
133-00031	1034863.664783	1860295.306846
133-00032	1034874.783253	1860693.718698
133-00033	1034411.513658	1860710.396403


[POLYGONS]

[VERTICES]


[SYMBOLS]

[MAP]
DIMENSIONS	1032388.006314	1858558.536405	1035204.919210	1861639.906308

