[TITLE]
Scenario Run :  BASE

[OPTIONS]
;Option and Files Scenario Set: BASE, Base Simulation Options
FLOW_UNITS	CFS
INFILTRATION	GREEN_AMPT
FLOW_ROUTING	DYNWAVE
ALLOW_PONDING	NO
DRY_DAYS	5.000000
SKIP_STEADY_STATE 	NO
IGNORE_RAINFALL	NO
IGNORE_SNOWMELT	NO
IGNORE_GROUNDWATER	NO
IGNORE_QUALITY	NO
FORCE_MAIN_EQUATION	H-W
LINK_OFFSETS	DEPTH
MIN_SLOPE	0.000000
START_DATE	02/11/2004
START_TIME	00:00
END_DATE	02/13/2004
END_TIME	00:00
REPORT_START_DATE	02/11/2004
REPORT_START_TIME	00:00
SWEEP_START	01/01
SWEEP_END	12/31
WET_STEP	00:05:00
DRY_STEP	24:00:00
ROUTING_STEP	30
REPORT_STEP	00:05:00
INERTIAL_DAMPING	PARTIAL
VARIABLE_STEP	0.750000
MINIMUM_STEP	0.000000
LENGTHENING_STEP	1
MIN_SURFAREA	0.000000
NORMAL_FLOW_LIMITED	SLOPE
MAX_TRIALS	4
HEAD_TOLERANCE	0.005000

[FILES]

[RAINGAGES]
BVILLE 14 10YRGAGE	CUMULATIVE	0.100000	1.000000	TIMESERIES	BVILLE 14 10YR		

[HYDROGRAPHS]

[EVAPORATION]
MONTHLY	0.000000	0.000000	0.000000	0.000000	0.000000	0.000000	0.000000	0.000000	0.000000	0.000000	0.000000	0.000000
DRY_ONLY	NO

[TEMPERATURE]

[ADJUSTMENTS]

[SUBCATCHMENTS]
10197#1	BVILLE 14 10YRGAGE	10197	1.609000	0.600000	0.012416	8.150000	0.000000
10199#1	BVILLE 14 10YRGAGE	10199	0.817000	0.600000	0.007917	8.130000	0.000000
10200#1	BVILLE 14 10YRGAGE	10200	0.221000	0.600000	0.002297	7.770000	0.000000
10201#1	BVILLE 14 10YRGAGE	10201	0.774000	0.600000	0.008131	9.960000	0.000000
10204#1	BVILLE 14 10YRGAGE	10204	2.329000	0.300000	0.008608	11.000000	0.000000
10205#1	BVILLE 14 10YRGAGE	10205	0.287000	0.500000	0.005802	8.880000	0.000000
10209#1	BVILLE 14 10YRGAGE	10209	3.784000	0.200000	0.019835	14.930000	0.000000
10210#1	BVILLE 14 10YRGAGE	10210	0.171000	0.500000	0.001308	8.150000	0.000000
10212#1	BVILLE 14 10YRGAGE	10212	0.191000	0.500000	0.001283	6.970000	0.000000
10213#1	BVILLE 14 10YRGAGE	10213	0.196000	0.600000	0.001196	8.860000	0.000000
10214#1	BVILLE 14 10YRGAGE	10214	0.262000	0.600000	0.001173	10.390000	0.000000
10219#1	BVILLE 14 10YRGAGE	10219	2.718000	0.500000	0.012511	10.840000	0.000000
10222#1	BVILLE 14 10YRGAGE	10222	5.465000	0.200000	0.019514	14.390000	0.000000
10229#1	BVILLE 14 10YRGAGE	10229	0.533000	32.000000	0.006313	12.320000	0.000000
10245#1	BVILLE 14 10YRGAGE	10245	5.366000	18.100000	0.013315	6.170000	0.000000
10246#1	BVILLE 14 10YRGAGE	10246	2.115000	17.400000	0.013588	7.230000	0.000000
10249#1	BVILLE 14 10YRGAGE	10249	0.230000	22.500000	0.006320	3.840000	0.000000
10250#1	BVILLE 14 10YRGAGE	10250	1.916000	14.900000	0.011067	7.700000	0.000000
10251#1	BVILLE 14 10YRGAGE	10251	0.111000	75.400000	0.004751	7.330000	0.000000
10253#1	BVILLE 14 10YRGAGE	10253	0.143000	34.100000	0.002796	5.710000	0.000000
10255#1	BVILLE 14 10YRGAGE	10255	5.279000	17.000000	0.020614	7.150000	0.000000
10264#1	BVILLE 14 10YRGAGE	10264	6.227000	15.700000	0.020684	7.980000	0.000000
10289#1	BVILLE 14 10YRGAGE	10289	4.529000	17.600000	0.023208	8.880000	0.000000
10957#1	BVILLE 14 10YRGAGE	10957	1.647000	80.800000	0.017107	8.280000	0.000000
11648#1	BVILLE 14 10YRGAGE	11648	2.084000	25.100000	0.017835	6.680000	0.000000
11649#1	BVILLE 14 10YRGAGE	11649	6.004000	15.300000	0.016736	6.320000	0.000000
11650#1	BVILLE 14 10YRGAGE	11650	0.449000	16.200000	0.006366	6.530000	0.000000
11656#1	BVILLE 14 10YRGAGE	11656	4.774000	11.900000	0.011041	6.800000	0.000000
11657#1	BVILLE 14 10YRGAGE	11657	2.456000	19.200000	0.014003	7.700000	0.000000
11659#1	BVILLE 14 10YRGAGE	11659	5.016000	11.200000	0.012007	6.490000	0.000000
11660#1	BVILLE 14 10YRGAGE	11660	3.687000	17.500000	0.017883	6.730000	0.000000
1270#1	BVILLE 14 10YRGAGE	1270	1.666000	0.400000	0.007941	5.180000	0.000000
1272#1	BVILLE 14 10YRGAGE	1272	8.123000	0.100000	0.020616	27.600000	0.000000
12916#1	BVILLE 14 10YRGAGE	12916	27.939000	0.200000	0.049311	6.760000	0.000000
12930#1	BVILLE 14 10YRGAGE	12930	0.105000	29.500000	0.002711	7.500000	0.000000
12933#1	BVILLE 14 10YRGAGE	12933	1.707000	19.500000	0.014076	10.910000	0.000000
12936#1	BVILLE 14 10YRGAGE	12936	1.137000	19.300000	0.011522	8.730000	0.000000
12940#1	BVILLE 14 10YRGAGE	12940	0.115000	5.900000	0.001955	5.230000	0.000000
12942#1	BVILLE 14 10YRGAGE	12942	4.473000	15.900000	0.019469	6.690000	0.000000
12943#1	BVILLE 14 10YRGAGE	12943	4.053000	15.900000	0.019536	13.290000	0.000000
12947#1	BVILLE 14 10YRGAGE	12947	0.994000	20.400000	0.008564	6.650000	0.000000
12949#1	BVILLE 14 10YRGAGE	12949	1.675000	17.000000	0.009413	4.770000	0.000000
12951#1	BVILLE 14 10YRGAGE	12951	2.356000	11.100000	0.011410	5.620000	0.000000
12953#1	BVILLE 14 10YRGAGE	12953	2.141000	14.300000	0.013476	4.130000	0.000000
12954#1	BVILLE 14 10YRGAGE	12954	3.753000	21.100000	0.012352	15.040000	0.000000
12956#1	BVILLE 14 10YRGAGE	12956	0.977000	18.900000	0.007646	6.620000	0.000000
12959#1	BVILLE 14 10YRGAGE	12959	0.972000	29.200000	0.004729	6.510000	0.000000
12960#1	BVILLE 14 10YRGAGE	12960	3.764000	27.900000	0.018204	7.570000	0.000000
12962#1	BVILLE 14 10YRGAGE	12962	2.588000	20.900000	0.014626	5.140000	0.000000
12978#1	BVILLE 14 10YRGAGE	12978	2.358000	74.100000	0.019031	7.440000	0.000000
12984#1	BVILLE 14 10YRGAGE	12984	0.701000	28.900000	0.004939	4.650000	0.000000
12985#1	BVILLE 14 10YRGAGE	12985	0.297000	32.700000	0.003445	5.350000	0.000000
12993#1	BVILLE 14 10YRGAGE	12993	2.741000	16.800000	0.018250	5.050000	0.000000
13016#1	BVILLE 14 10YRGAGE	13016	0.076000	35.200000	0.001916	12.990000	0.000000
13017#1	BVILLE 14 10YRGAGE	13017	0.462000	31.800000	0.006404	5.920000	0.000000
13019#1	BVILLE 14 10YRGAGE	13019	1.384000	18.800000	0.009387	6.440000	0.000000
13021#1	BVILLE 14 10YRGAGE	13021	0.380000	20.700000	0.003696	5.220000	0.000000
13033#1	BVILLE 14 10YRGAGE	13033	5.199000	23.300000	0.015634	7.970000	0.000000
13045#1	BVILLE 14 10YRGAGE	13045	0.946000	17.800000	0.009552	10.950000	0.000000
13047#1	BVILLE 14 10YRGAGE	13047	3.052000	13.900000	0.016646	8.390000	0.000000
13050#1	BVILLE 14 10YRGAGE	13050	0.132000	19.700000	0.002440	6.700000	0.000000
13051#1	BVILLE 14 10YRGAGE	13051	1.040000	23.900000	0.007803	7.770000	0.000000
13054#1	BVILLE 14 10YRGAGE	13054	4.242000	9.200000	0.016760	9.410000	0.000000
13056#1	BVILLE 14 10YRGAGE	13056	1.950000	17.200000	0.009068	7.680000	0.000000
13058#1	BVILLE 14 10YRGAGE	13058	1.667000	29.100000	0.010216	6.980000	0.000000
13059#1	BVILLE 14 10YRGAGE	13059	0.136000	22.600000	0.002506	10.120000	0.000000
13061#1	BVILLE 14 10YRGAGE	13061	0.517000	28.500000	0.006086	6.390000	0.000000
13062#1	BVILLE 14 10YRGAGE	13062	0.760000	32.900000	0.005030	5.590000	0.000000
13063#1	BVILLE 14 10YRGAGE	13063	0.636000	25.600000	0.008470	7.030000	0.000000
13068#1	BVILLE 14 10YRGAGE	13068	0.366000	36.000000	0.004063	4.590000	0.000000
13070#1	BVILLE 14 10YRGAGE	13070	0.285000	25.800000	0.003331	5.350000	0.000000
13071#1	BVILLE 14 10YRGAGE	13071	0.393000	31.800000	0.003769	6.770000	0.000000
13072#1	BVILLE 14 10YRGAGE	13072	4.213000	29.400000	0.015013	9.010000	0.000000
13076#1	BVILLE 14 10YRGAGE	13076	0.491000	20.200000	0.003649	9.010000	0.000000
13077#1	BVILLE 14 10YRGAGE	13077	0.079000	19.600000	0.001732	7.690000	0.000000
13095#1	BVILLE 14 10YRGAGE	13095	3.417000	18.400000	0.013933	7.060000	0.000000
13107#1	BVILLE 14 10YRGAGE	13107	1.646000	26.900000	0.015106	7.020000	0.000000
13108#1	BVILLE 14 10YRGAGE	13108	0.638000	53.700000	0.007329	6.910000	0.000000
13109#1	BVILLE 14 10YRGAGE	13109	0.338000	6.400000	0.004521	6.380000	0.000000
13165#1	BVILLE 14 10YRGAGE	13165	8.704000	20.100000	0.028996	10.310000	0.000000
13388#1	BVILLE 14 10YRGAGE	13388	0.649000	99.000000	0.010819	2.520000	0.000000
13389#1	BVILLE 14 10YRGAGE	13389	1.597000	58.500000	0.011866	8.720000	0.000000
13390#1	BVILLE 14 10YRGAGE	13390	1.690000	97.600000	0.024401	2.030000	0.000000
13393#1	BVILLE 14 10YRGAGE	13393	0.114000	91.300000	0.006455	2.960000	0.000000
13394#1	BVILLE 14 10YRGAGE	13394	0.160000	99.900000	0.006315	4.310000	0.000000
13413#1	BVILLE 14 10YRGAGE	13413	0.283000	74.500000	0.004639	8.730000	0.000000
13415#1	BVILLE 14 10YRGAGE	13415	0.276000	74.600000	0.003763	8.840000	0.000000
13419#1	BVILLE 14 10YRGAGE	13419	0.664000	24.900000	0.005763	8.130000	0.000000
13420#1	BVILLE 14 10YRGAGE	13420	0.545000	64.400000	0.005439	12.730000	0.000000
13429#1	BVILLE 14 10YRGAGE	13429	2.194000	54.000000	0.007622	7.460000	0.000000
13430#1	BVILLE 14 10YRGAGE	13430	1.016000	67.900000	0.009553	4.640000	0.000000
13431#1	BVILLE 14 10YRGAGE	13431	0.662000	76.500000	0.004478	3.300000	0.000000
13432#1	BVILLE 14 10YRGAGE	13432	1.097000	97.200000	0.005072	2.980000	0.000000
13996#1	BVILLE 14 10YRGAGE	13996	7.636000	24.400000	0.029706	15.510000	0.000000
13998#1	BVILLE 14 10YRGAGE	13998	3.069000	20.500000	0.015195	19.780000	0.000000
14130#1	BVILLE 14 10YRGAGE	14130	4.594000	8.700000	0.018459	17.360000	0.000000
15119#1	BVILLE 14 10YRGAGE	15119	0.658000	0.000000	0.005738	28.740000	0.000000
15120#1	BVILLE 14 10YRGAGE	15120	1.408000	0.000000	0.007436	18.870000	0.000000
15121#1	BVILLE 14 10YRGAGE	15121	0.286000	0.200000	0.002502	11.460000	0.000000
15122#1	BVILLE 14 10YRGAGE	15122	0.252000	0.300000	0.003588	11.530000	0.000000
3612#1	BVILLE 14 10YRGAGE	3612	5.437000	24.200000	0.016276	6.160000	0.000000
3617#1	BVILLE 14 10YRGAGE	3617	15.386000	27.700000	0.031337	6.380000	0.000000
3618#1	BVILLE 14 10YRGAGE	3618	1.123000	32.300000	0.010972	7.080000	0.000000
3711#1	BVILLE 14 10YRGAGE	3711	1.166000	16.700000	0.010947	5.920000	0.000000
3723#1	BVILLE 14 10YRGAGE	3723	2.609000	18.500000	0.014277	8.730000	0.000000
3725#1	BVILLE 14 10YRGAGE	3725	2.226000	14.100000	0.014069	5.500000	0.000000
3726#1	BVILLE 14 10YRGAGE	3726	1.095000	18.900000	0.010373	7.350000	0.000000
3727#1	BVILLE 14 10YRGAGE	3727	1.084000	23.600000	0.006244	6.350000	0.000000
3731#1	BVILLE 14 10YRGAGE	3731	1.873000	13.700000	0.008313	10.780000	0.000000
3734#1	BVILLE 14 10YRGAGE	3734	4.535000	11.000000	0.015427	7.600000	0.000000
3735#1	BVILLE 14 10YRGAGE	3735	3.859000	15.200000	0.011983	8.810000	0.000000
3737#1	BVILLE 14 10YRGAGE	3737	1.326000	19.600000	0.009640	5.870000	0.000000
3740#1	BVILLE 14 10YRGAGE	3740	8.239000	17.100000	0.016597	7.570000	0.000000
3743#1	BVILLE 14 10YRGAGE	3743	5.076000	49.200000	0.020018	5.920000	0.000000
3746#1	BVILLE 14 10YRGAGE	3746	1.135000	26.800000	0.011842	8.480000	0.000000
3747#1	BVILLE 14 10YRGAGE	3747	10.792000	33.700000	0.022336	8.560000	0.000000
3758#1	BVILLE 14 10YRGAGE	3758	1.734000	21.900000	0.015354	10.600000	0.000000
3759#1	BVILLE 14 10YRGAGE	3759	3.603000	22.800000	0.017150	8.960000	0.000000
3761#1	BVILLE 14 10YRGAGE	3761	0.150000	24.900000	0.002728	7.310000	0.000000
3763#1	BVILLE 14 10YRGAGE	3763	6.218000	11.300000	0.027456	12.350000	0.000000
3764#1	BVILLE 14 10YRGAGE	3764	1.697000	24.100000	0.007784	8.070000	0.000000
3765#1	BVILLE 14 10YRGAGE	3765	2.225000	23.100000	0.016181	5.860000	0.000000
3767#1	BVILLE 14 10YRGAGE	3767	4.420000	21.300000	0.021692	7.710000	0.000000
3768#1	BVILLE 14 10YRGAGE	3768	4.916000	14.900000	0.014003	9.700000	0.000000
3773#1	BVILLE 14 10YRGAGE	3773	9.259000	23.600000	0.027524	5.250000	0.000000
3778#1	BVILLE 14 10YRGAGE	3778	13.142000	22.900000	0.030854	6.890000	0.000000
3782#1	BVILLE 14 10YRGAGE	3782	4.021000	21.500000	0.018205	7.670000	0.000000
3784#1	BVILLE 14 10YRGAGE	3784	3.650000	28.300000	0.024584	6.250000	0.000000
3787#1	BVILLE 14 10YRGAGE	3787	1.574000	33.500000	0.004614	4.860000	0.000000
3792#1	BVILLE 14 10YRGAGE	3792	1.154000	33.500000	0.009228	8.000000	0.000000
3793#1	BVILLE 14 10YRGAGE	3793	0.266000	32.900000	0.003575	5.570000	0.000000
3794#1	BVILLE 14 10YRGAGE	3794	0.516000	15.000000	0.008468	8.430000	0.000000
3798#1	BVILLE 14 10YRGAGE	3798	2.152000	25.600000	0.024681	5.830000	0.000000
3805#1	BVILLE 14 10YRGAGE	3805	4.561000	19.900000	0.019237	6.490000	0.000000
3807#1	BVILLE 14 10YRGAGE	3807	1.864000	20.800000	0.017537	4.820000	0.000000
3810#1	BVILLE 14 10YRGAGE	3810	1.708000	11.400000	0.011063	6.090000	0.000000
3811#1	BVILLE 14 10YRGAGE	3811	0.634000	23.300000	0.010669	6.640000	0.000000
3821#1	BVILLE 14 10YRGAGE	3821	0.699000	40.500000	0.004798	8.440000	0.000000
3827#1	BVILLE 14 10YRGAGE	3827	1.013000	17.900000	0.005005	7.610000	0.000000
3828#1	BVILLE 14 10YRGAGE	3828	3.136000	18.700000	0.013634	6.830000	0.000000
3833#1	BVILLE 14 10YRGAGE	3833	0.335000	2.200000	0.003470	5.660000	0.000000
3834#1	BVILLE 14 10YRGAGE	3834	3.946000	57.600000	0.014004	7.070000	0.000000
3840#1	BVILLE 14 10YRGAGE	3840	4.537000	21.500000	0.019580	6.020000	0.000000
3841#1	BVILLE 14 10YRGAGE	3841	0.482000	10.200000	0.008836	5.240000	0.000000
3848#1	BVILLE 14 10YRGAGE	3848	5.039000	13.300000	0.016805	6.650000	0.000000
3849#1	BVILLE 14 10YRGAGE	3849	3.339000	8.100000	0.012190	8.830000	0.000000
3856#1	BVILLE 14 10YRGAGE	3856	7.023000	18.300000	0.021349	5.440000	0.000000
3857#1	BVILLE 14 10YRGAGE	3857	0.130000	14.000000	0.003206	7.650000	0.000000
3859#1	BVILLE 14 10YRGAGE	3859	3.866000	22.700000	0.024678	6.660000	0.000000
3860#1	BVILLE 14 10YRGAGE	3860	6.337000	16.200000	0.020961	8.520000	0.000000
3865#1	BVILLE 14 10YRGAGE	3865	5.550000	15.800000	0.020545	18.150000	0.000000
3866#1	BVILLE 14 10YRGAGE	3866	1.248000	16.600000	0.019923	10.960000	0.000000
3867#1	BVILLE 14 10YRGAGE	3867	7.353000	19.300000	0.023233	11.920000	0.000000
3868#1	BVILLE 14 10YRGAGE	3868	1.043000	26.100000	0.010265	8.560000	0.000000
3875#1	BVILLE 14 10YRGAGE	3875	10.414000	20.500000	0.015840	6.420000	0.000000
3884#1	BVILLE 14 10YRGAGE	3884	0.614000	31.900000	0.006521	4.910000	0.000000
3887#1	BVILLE 14 10YRGAGE	3887	0.209000	14.200000	0.003792	4.480000	0.000000
3892#1	BVILLE 14 10YRGAGE	3892	3.275000	27.800000	0.011570	9.140000	0.000000
3897#1	BVILLE 14 10YRGAGE	3897	0.080000	29.900000	0.001720	8.980000	0.000000
3905#1	BVILLE 14 10YRGAGE	3905	2.949000	21.800000	0.011088	12.750000	0.000000
3910#1	BVILLE 14 10YRGAGE	3910	2.953000	22.000000	0.014738	5.780000	0.000000
3914#1	BVILLE 14 10YRGAGE	3914	0.268000	34.600000	0.004341	5.580000	0.000000
3915#1	BVILLE 14 10YRGAGE	3915	0.286000	18.500000	0.003422	5.300000	0.000000
3916#1	BVILLE 14 10YRGAGE	3916	4.472000	19.100000	0.013269	7.900000	0.000000
3920#1	BVILLE 14 10YRGAGE	3920	18.468000	31.300000	0.028926	7.050000	0.000000
3921#1	BVILLE 14 10YRGAGE	3921	0.606000	25.300000	0.008818	4.580000	0.000000
3925#1	BVILLE 14 10YRGAGE	3925	10.318000	24.800000	0.029914	6.920000	0.000000
3926#1	BVILLE 14 10YRGAGE	3926	1.549000	26.400000	0.017286	5.810000	0.000000
3929#1	BVILLE 14 10YRGAGE	3929	0.907000	32.000000	0.005742	6.680000	0.000000
3930#1	BVILLE 14 10YRGAGE	3930	1.141000	38.400000	0.012855	6.220000	0.000000
3931#1	BVILLE 14 10YRGAGE	3931	1.297000	27.200000	0.012993	5.480000	0.000000
3933#1	BVILLE 14 10YRGAGE	3933	2.237000	8.500000	0.007964	11.190000	0.000000
3934#1	BVILLE 14 10YRGAGE	3934	14.081000	34.100000	0.018320	6.480000	0.000000
3935#1	BVILLE 14 10YRGAGE	3935	4.182000	8.300000	0.016137	9.750000	0.000000
3936#1	BVILLE 14 10YRGAGE	3936	5.511000	7.800000	0.008563	7.130000	0.000000
3938#1	BVILLE 14 10YRGAGE	3938	1.447000	28.800000	0.011205	8.530000	0.000000
3939#1	BVILLE 14 10YRGAGE	3939	5.527000	12.300000	0.025987	11.980000	0.000000
697#1	BVILLE 14 10YRGAGE	697	7.086000	32.500000	0.022474	9.140000	0.000000
705#1	BVILLE 14 10YRGAGE	705	15.086000	18.000000	0.032254	18.070000	0.000000
722#1	BVILLE 14 10YRGAGE	722	6.305000	20.600000	0.028789	15.770000	0.000000
723#1	BVILLE 14 10YRGAGE	723	0.374000	23.400000	0.005303	6.990000	0.000000
725#1	BVILLE 14 10YRGAGE	725	9.809000	16.600000	0.022957	15.820000	0.000000
728#1	BVILLE 14 10YRGAGE	728	0.830000	38.600000	0.013735	5.800000	0.000000
729#1	BVILLE 14 10YRGAGE	729	1.088000	48.300000	0.014390	6.260000	0.000000
731#1	BVILLE 14 10YRGAGE	731	0.540000	28.400000	0.006593	9.490000	0.000000
736#1	BVILLE 14 10YRGAGE	736	1.551000	43.000000	0.013613	6.880000	0.000000
9385#1	BVILLE 14 10YRGAGE	9385	2.916000	12.500000	0.008631	4.380000	0.000000
9386#1	BVILLE 14 10YRGAGE	9386	7.406000	20.400000	0.019216	7.150000	0.000000
9387#1	BVILLE 14 10YRGAGE	9387	15.222000	8.500000	0.041116	18.920000	0.000000
9395#1	BVILLE 14 10YRGAGE	9395	2.300000	11.400000	0.010262	8.470000	0.000000
9396#1	BVILLE 14 10YRGAGE	9396	2.219000	54.500000	0.016181	7.950000	0.000000
9398#1	BVILLE 14 10YRGAGE	9398	3.033000	26.900000	0.013705	7.470000	0.000000
RH1-A#1	BVILLE 14 10YRGAGE	RH1-A	3.419000	29.400000	0.010303	13.360000	0.000000
RH10-C#1	BVILLE 14 10YRGAGE	RH10-C	1.080000	59.400000	0.004867	6.570000	0.000000
RH10-D#1	BVILLE 14 10YRGAGE	RH10-D	1.521000	88.000000	0.009552	7.980000	0.000000
RH3-A#1	BVILLE 14 10YRGAGE	RH3-A	2.241000	11.200000	0.011433	28.360000	0.000000
RH3-B#1	BVILLE 14 10YRGAGE	RH3-B	3.154000	20.000000	0.011959	14.520000	0.000000
RH9-A#1	BVILLE 14 10YRGAGE	RH9-A	13.969000	25.900000	0.020329	9.550000	0.000000
RH9-D#1	BVILLE 14 10YRGAGE	RH9-D	16.413000	25.900000	0.023886	9.550000	0.000000

[SUBAREAS]
10197#1	0.014000	0.200000	0.030000	0.400000	0.000000	OUTLET
10199#1	0.014000	0.200000	0.030000	0.400000	0.000000	OUTLET
10200#1	0.014000	0.200000	0.030000	0.400000	0.000000	OUTLET
10201#1	0.014000	0.200000	0.030000	0.400000	0.000000	OUTLET
10204#1	0.014000	0.200000	0.030000	0.400000	0.000000	OUTLET
10205#1	0.014000	0.200000	0.030000	0.400000	0.000000	OUTLET
10209#1	0.014000	0.200000	0.030000	0.400000	0.000000	OUTLET
10210#1	0.014000	0.200000	0.030000	0.400000	0.000000	OUTLET
10212#1	0.014000	0.200000	0.030000	0.400000	0.000000	OUTLET
10213#1	0.014000	0.200000	0.030000	0.400000	0.000000	OUTLET
10214#1	0.014000	0.200000	0.030000	0.400000	0.000000	OUTLET
10219#1	0.014000	0.200000	0.030000	0.400000	0.000000	OUTLET
10222#1	0.014000	0.200000	0.030000	0.400000	0.000000	OUTLET
10229#1	0.014000	0.200000	0.030000	0.400000	0.000000	OUTLET
10245#1	0.014000	0.200000	0.030000	0.400000	0.000000	OUTLET
10246#1	0.014000	0.200000	0.030000	0.400000	0.000000	OUTLET
10249#1	0.014000	0.200000	0.030000	0.400000	0.000000	OUTLET
10250#1	0.014000	0.200000	0.030000	0.400000	0.000000	OUTLET
10251#1	0.014000	0.200000	0.030000	0.400000	0.000000	OUTLET
10253#1	0.014000	0.200000	0.030000	0.400000	0.000000	OUTLET
10255#1	0.014000	0.200000	0.030000	0.400000	0.000000	OUTLET
10264#1	0.014000	0.200000	0.030000	0.400000	0.000000	OUTLET
10289#1	0.014000	0.200000	0.030000	0.400000	0.000000	OUTLET
10957#1	0.014000	0.200000	0.030000	0.400000	0.000000	OUTLET
11648#1	0.014000	0.200000	0.030000	0.400000	0.000000	OUTLET
11649#1	0.014000	0.200000	0.030000	0.400000	0.000000	OUTLET
11650#1	0.014000	0.200000	0.030000	0.400000	0.000000	OUTLET
11656#1	0.014000	0.200000	0.030000	0.400000	0.000000	OUTLET
11657#1	0.014000	0.200000	0.030000	0.400000	0.000000	OUTLET
11659#1	0.014000	0.200000	0.030000	0.400000	0.000000	OUTLET
11660#1	0.014000	0.200000	0.030000	0.400000	0.000000	OUTLET
1270#1	0.014000	0.200000	0.030000	0.400000	0.000000	OUTLET
1272#1	0.014000	0.200000	0.030000	0.400000	0.000000	OUTLET
12916#1	0.014000	0.200000	0.030000	0.400000	0.000000	OUTLET
12930#1	0.014000	0.200000	0.030000	0.400000	0.000000	OUTLET
12933#1	0.014000	0.200000	0.030000	0.400000	0.000000	OUTLET
12936#1	0.014000	0.200000	0.030000	0.400000	0.000000	OUTLET
12940#1	0.014000	0.200000	0.030000	0.400000	0.000000	OUTLET
12942#1	0.014000	0.200000	0.030000	0.400000	0.000000	OUTLET
12943#1	0.014000	0.200000	0.030000	0.400000	0.000000	OUTLET
12947#1	0.014000	0.200000	0.030000	0.400000	0.000000	OUTLET
12949#1	0.014000	0.200000	0.030000	0.400000	0.000000	OUTLET
12951#1	0.014000	0.200000	0.030000	0.400000	0.000000	OUTLET
12953#1	0.014000	0.200000	0.030000	0.400000	0.000000	OUTLET
12954#1	0.014000	0.200000	0.030000	0.400000	0.000000	OUTLET
12956#1	0.014000	0.200000	0.030000	0.400000	0.000000	OUTLET
12959#1	0.014000	0.200000	0.030000	0.400000	0.000000	OUTLET
12960#1	0.014000	0.200000	0.030000	0.400000	0.000000	OUTLET
12962#1	0.014000	0.200000	0.030000	0.400000	0.000000	OUTLET
12978#1	0.014000	0.200000	0.030000	0.400000	0.000000	OUTLET
12984#1	0.014000	0.200000	0.030000	0.400000	0.000000	OUTLET
12985#1	0.014000	0.200000	0.030000	0.400000	0.000000	OUTLET
12993#1	0.014000	0.200000	0.030000	0.400000	0.000000	OUTLET
13016#1	0.014000	0.200000	0.030000	0.400000	0.000000	OUTLET
13017#1	0.014000	0.200000	0.030000	0.400000	0.000000	OUTLET
13019#1	0.014000	0.200000	0.030000	0.400000	0.000000	OUTLET
13021#1	0.014000	0.200000	0.030000	0.400000	0.000000	OUTLET
13033#1	0.014000	0.200000	0.030000	0.400000	0.000000	OUTLET
13045#1	0.014000	0.200000	0.030000	0.400000	0.000000	OUTLET
13047#1	0.014000	0.200000	0.030000	0.400000	0.000000	OUTLET
13050#1	0.014000	0.200000	0.030000	0.400000	0.000000	OUTLET
13051#1	0.014000	0.200000	0.030000	0.400000	0.000000	OUTLET
13054#1	0.014000	0.200000	0.030000	0.400000	0.000000	OUTLET
13056#1	0.014000	0.200000	0.030000	0.400000	0.000000	OUTLET
13058#1	0.014000	0.200000	0.030000	0.400000	0.000000	OUTLET
13059#1	0.014000	0.200000	0.030000	0.400000	0.000000	OUTLET
13061#1	0.014000	0.200000	0.030000	0.400000	0.000000	OUTLET
13062#1	0.014000	0.200000	0.030000	0.400000	0.000000	OUTLET
13063#1	0.014000	0.200000	0.030000	0.400000	0.000000	OUTLET
13068#1	0.014000	0.200000	0.030000	0.400000	0.000000	OUTLET
13070#1	0.014000	0.200000	0.030000	0.400000	0.000000	OUTLET
13071#1	0.014000	0.200000	0.030000	0.400000	0.000000	OUTLET
13072#1	0.014000	0.200000	0.030000	0.400000	0.000000	OUTLET
13076#1	0.014000	0.200000	0.030000	0.400000	0.000000	OUTLET
13077#1	0.014000	0.200000	0.030000	0.400000	0.000000	OUTLET
13095#1	0.014000	0.200000	0.030000	0.400000	0.000000	OUTLET
13107#1	0.014000	0.200000	0.030000	0.400000	0.000000	OUTLET
13108#1	0.014000	0.200000	0.030000	0.400000	0.000000	OUTLET
13109#1	0.014000	0.200000	0.030000	0.400000	0.000000	OUTLET
13165#1	0.014000	0.200000	0.030000	0.400000	0.000000	OUTLET
13388#1	0.014000	0.200000	0.030000	0.400000	0.000000	OUTLET
13389#1	0.014000	0.200000	0.030000	0.400000	0.000000	OUTLET
13390#1	0.014000	0.200000	0.030000	0.400000	0.000000	OUTLET
13393#1	0.014000	0.200000	0.030000	0.400000	0.000000	OUTLET
13394#1	0.014000	0.200000	0.030000	0.400000	0.000000	OUTLET
13413#1	0.014000	0.200000	0.030000	0.400000	0.000000	OUTLET
13415#1	0.014000	0.200000	0.030000	0.400000	0.000000	OUTLET
13419#1	0.014000	0.200000	0.030000	0.400000	0.000000	OUTLET
13420#1	0.014000	0.200000	0.030000	0.400000	0.000000	OUTLET
13429#1	0.014000	0.200000	0.030000	0.400000	0.000000	OUTLET
13430#1	0.014000	0.200000	0.030000	0.400000	0.000000	OUTLET
13431#1	0.014000	0.200000	0.030000	0.400000	0.000000	OUTLET
13432#1	0.014000	0.200000	0.030000	0.400000	0.000000	OUTLET
13996#1	0.014000	0.200000	0.030000	0.400000	0.000000	OUTLET
13998#1	0.014000	0.200000	0.030000	0.400000	0.000000	OUTLET
14130#1	0.014000	0.200000	0.030000	0.400000	0.000000	OUTLET
15119#1	0.014000	0.200000	0.030000	0.400000	0.000000	OUTLET
15120#1	0.014000	0.200000	0.030000	0.400000	0.000000	OUTLET
15121#1	0.014000	0.200000	0.030000	0.400000	0.000000	OUTLET
15122#1	0.014000	0.200000	0.030000	0.400000	0.000000	OUTLET
3612#1	0.014000	0.200000	0.030000	0.400000	0.000000	OUTLET
3617#1	0.014000	0.200000	0.030000	0.400000	0.000000	OUTLET
3618#1	0.014000	0.200000	0.030000	0.400000	0.000000	OUTLET
3711#1	0.014000	0.200000	0.030000	0.400000	0.000000	OUTLET
3723#1	0.014000	0.200000	0.030000	0.400000	0.000000	OUTLET
3725#1	0.014000	0.200000	0.030000	0.400000	0.000000	OUTLET
3726#1	0.014000	0.200000	0.030000	0.400000	0.000000	OUTLET
3727#1	0.014000	0.200000	0.030000	0.400000	0.000000	OUTLET
3731#1	0.014000	0.200000	0.030000	0.400000	0.000000	OUTLET
3734#1	0.014000	0.200000	0.030000	0.400000	0.000000	OUTLET
3735#1	0.014000	0.200000	0.030000	0.400000	0.000000	OUTLET
3737#1	0.014000	0.200000	0.030000	0.400000	0.000000	OUTLET
3740#1	0.014000	0.200000	0.030000	0.400000	0.000000	OUTLET
3743#1	0.014000	0.200000	0.030000	0.400000	0.000000	OUTLET
3746#1	0.014000	0.200000	0.030000	0.400000	0.000000	OUTLET
3747#1	0.014000	0.200000	0.030000	0.400000	0.000000	OUTLET
3758#1	0.014000	0.200000	0.030000	0.400000	0.000000	OUTLET
3759#1	0.014000	0.200000	0.030000	0.400000	0.000000	OUTLET
3761#1	0.014000	0.200000	0.030000	0.400000	0.000000	OUTLET
3763#1	0.014000	0.200000	0.030000	0.400000	0.000000	OUTLET
3764#1	0.014000	0.200000	0.030000	0.400000	0.000000	OUTLET
3765#1	0.014000	0.200000	0.030000	0.400000	0.000000	OUTLET
3767#1	0.014000	0.200000	0.030000	0.400000	0.000000	OUTLET
3768#1	0.014000	0.200000	0.030000	0.400000	0.000000	OUTLET
3773#1	0.014000	0.200000	0.030000	0.400000	0.000000	OUTLET
3778#1	0.014000	0.200000	0.030000	0.400000	0.000000	OUTLET
3782#1	0.014000	0.200000	0.030000	0.400000	0.000000	OUTLET
3784#1	0.014000	0.200000	0.030000	0.400000	0.000000	OUTLET
3787#1	0.014000	0.200000	0.030000	0.400000	0.000000	OUTLET
3792#1	0.014000	0.200000	0.030000	0.400000	0.000000	OUTLET
3793#1	0.014000	0.200000	0.030000	0.400000	0.000000	OUTLET
3794#1	0.014000	0.200000	0.030000	0.400000	0.000000	OUTLET
3798#1	0.014000	0.200000	0.030000	0.400000	0.000000	OUTLET
3805#1	0.014000	0.200000	0.030000	0.400000	0.000000	OUTLET
3807#1	0.014000	0.200000	0.030000	0.400000	0.000000	OUTLET
3810#1	0.014000	0.200000	0.030000	0.400000	0.000000	OUTLET
3811#1	0.014000	0.200000	0.030000	0.400000	0.000000	OUTLET
3821#1	0.014000	0.200000	0.030000	0.400000	0.000000	OUTLET
3827#1	0.014000	0.200000	0.030000	0.400000	0.000000	OUTLET
3828#1	0.014000	0.200000	0.030000	0.400000	0.000000	OUTLET
3833#1	0.014000	0.200000	0.030000	0.400000	0.000000	OUTLET
3834#1	0.014000	0.200000	0.030000	0.400000	0.000000	OUTLET
3840#1	0.014000	0.200000	0.030000	0.400000	0.000000	OUTLET
3841#1	0.014000	0.200000	0.030000	0.400000	0.000000	OUTLET
3848#1	0.014000	0.200000	0.030000	0.400000	0.000000	OUTLET
3849#1	0.014000	0.200000	0.030000	0.400000	0.000000	OUTLET
3856#1	0.014000	0.200000	0.030000	0.400000	0.000000	OUTLET
3857#1	0.014000	0.200000	0.030000	0.400000	0.000000	OUTLET
3859#1	0.014000	0.200000	0.030000	0.400000	0.000000	OUTLET
3860#1	0.014000	0.200000	0.030000	0.400000	0.000000	OUTLET
3865#1	0.014000	0.200000	0.030000	0.400000	0.000000	OUTLET
3866#1	0.014000	0.200000	0.030000	0.400000	0.000000	OUTLET
3867#1	0.014000	0.200000	0.030000	0.400000	0.000000	OUTLET
3868#1	0.014000	0.200000	0.030000	0.400000	0.000000	OUTLET
3875#1	0.014000	0.200000	0.030000	0.400000	0.000000	OUTLET
3884#1	0.014000	0.200000	0.030000	0.400000	0.000000	OUTLET
3887#1	0.014000	0.200000	0.030000	0.400000	0.000000	OUTLET
3892#1	0.014000	0.200000	0.030000	0.400000	0.000000	OUTLET
3897#1	0.014000	0.200000	0.030000	0.400000	0.000000	OUTLET
3905#1	0.014000	0.200000	0.030000	0.400000	0.000000	OUTLET
3910#1	0.014000	0.200000	0.030000	0.400000	0.000000	OUTLET
3914#1	0.014000	0.200000	0.030000	0.400000	0.000000	OUTLET
3915#1	0.014000	0.200000	0.030000	0.400000	0.000000	OUTLET
3916#1	0.014000	0.200000	0.030000	0.400000	0.000000	OUTLET
3920#1	0.014000	0.200000	0.030000	0.400000	0.000000	OUTLET
3921#1	0.014000	0.200000	0.030000	0.400000	0.000000	OUTLET
3925#1	0.014000	0.200000	0.030000	0.400000	0.000000	OUTLET
3926#1	0.014000	0.200000	0.030000	0.400000	0.000000	OUTLET
3929#1	0.014000	0.200000	0.030000	0.400000	0.000000	OUTLET
3930#1	0.014000	0.200000	0.030000	0.400000	0.000000	OUTLET
3931#1	0.014000	0.200000	0.030000	0.400000	0.000000	OUTLET
3933#1	0.014000	0.200000	0.030000	0.400000	0.000000	OUTLET
3934#1	0.014000	0.200000	0.030000	0.400000	0.000000	OUTLET
3935#1	0.014000	0.200000	0.030000	0.400000	0.000000	OUTLET
3936#1	0.014000	0.200000	0.030000	0.400000	0.000000	OUTLET
3938#1	0.014000	0.200000	0.030000	0.400000	0.000000	OUTLET
3939#1	0.014000	0.200000	0.030000	0.400000	0.000000	OUTLET
697#1	0.014000	0.200000	0.030000	0.400000	0.000000	OUTLET
705#1	0.014000	0.200000	0.030000	0.400000	0.000000	OUTLET
722#1	0.014000	0.200000	0.030000	0.400000	0.000000	OUTLET
723#1	0.014000	0.200000	0.030000	0.400000	0.000000	OUTLET
725#1	0.014000	0.200000	0.030000	0.400000	0.000000	OUTLET
728#1	0.014000	0.200000	0.030000	0.400000	0.000000	OUTLET
729#1	0.014000	0.200000	0.030000	0.400000	0.000000	OUTLET
731#1	0.014000	0.200000	0.030000	0.400000	0.000000	OUTLET
736#1	0.014000	0.200000	0.030000	0.400000	0.000000	OUTLET
9385#1	0.014000	0.200000	0.030000	0.400000	0.000000	OUTLET
9386#1	0.014000	0.200000	0.030000	0.400000	0.000000	OUTLET
9387#1	0.014000	0.200000	0.030000	0.400000	0.000000	OUTLET
9395#1	0.014000	0.200000	0.030000	0.400000	0.000000	OUTLET
9396#1	0.014000	0.200000	0.030000	0.400000	0.000000	OUTLET
9398#1	0.014000	0.200000	0.030000	0.400000	0.000000	OUTLET
RH1-A#1	0.014000	0.200000	0.030000	0.400000	0.000000	OUTLET
RH10-C#1	0.014000	0.200000	0.030000	0.400000	0.000000	OUTLET
RH10-D#1	0.014000	0.200000	0.030000	0.400000	0.000000	OUTLET
RH3-A#1	0.014000	0.200000	0.030000	0.400000	0.000000	OUTLET
RH3-B#1	0.014000	0.200000	0.030000	0.400000	0.000000	OUTLET
RH9-A#1	0.014000	0.200000	0.030000	0.400000	0.000000	OUTLET
RH9-D#1	0.014000	0.200000	0.030000	0.400000	0.000000	OUTLET

[INFILTRATION]
10197#1	4.330000	0.860000	0.250000
10199#1	4.330000	0.860000	0.250000
10200#1	4.330000	0.860000	0.250000
10201#1	4.330000	0.860000	0.250000
10204#1	4.330000	0.860000	0.250000
10205#1	4.330000	0.860000	0.250000
10209#1	4.330000	0.860000	0.250000
10210#1	4.330000	0.860000	0.250000
10212#1	4.330000	0.860000	0.250000
10213#1	4.330000	0.860000	0.250000
10214#1	4.330000	0.860000	0.250000
10219#1	4.330000	0.860000	0.250000
10222#1	4.330000	0.860000	0.250000
10229#1	4.330000	0.860000	0.250000
10245#1	4.330000	0.860000	0.250000
10246#1	4.330000	0.860000	0.250000
10249#1	4.330000	0.860000	0.250000
10250#1	4.330000	0.860000	0.250000
10251#1	4.330000	0.860000	0.250000
10253#1	4.330000	0.860000	0.250000
10255#1	4.330000	0.860000	0.250000
10264#1	4.330000	0.860000	0.250000
10289#1	4.330000	0.860000	0.250000
10957#1	4.330000	0.860000	0.250000
11648#1	4.330000	0.860000	0.250000
11649#1	4.330000	0.860000	0.250000
11650#1	4.330000	0.860000	0.250000
11656#1	4.330000	0.860000	0.250000
11657#1	4.330000	0.860000	0.250000
11659#1	4.330000	0.860000	0.250000
11660#1	4.330000	0.860000	0.250000
1270#1	4.330000	0.860000	0.250000
1272#1	4.330000	0.860000	0.250000
12916#1	4.330000	0.860000	0.250000
12930#1	4.330000	0.860000	0.250000
12933#1	4.330000	0.860000	0.250000
12936#1	4.330000	0.860000	0.250000
12940#1	4.330000	0.860000	0.250000
12942#1	4.330000	0.860000	0.250000
12943#1	4.330000	0.860000	0.250000
12947#1	4.330000	0.860000	0.250000
12949#1	4.330000	0.860000	0.250000
12951#1	4.330000	0.860000	0.250000