[TITLE]

[OPTIONS]
FLOW_UNITS           CFS
INFILTRATION         HORTON
FLOW_ROUTING         DYNWAVE
START_DATE           04/01/2008
START_TIME           00:00:00
REPORT_START_DATE    04/01/2008
REPORT_START_TIME    00:00:00
END_DATE             06/30/2008
END_TIME             23:55:00
SWEEP_START          01/01
SWEEP_END            12/31
DRY_DAYS             5.000000
REPORT_STEP          00:15:00
WET_STEP             00:05:00
DRY_STEP             24:05:00
ROUTING_STEP         0:01:00
ALLOW_PONDING        YES
INERTIAL_DAMPING     NONE
VARIABLE_STEP        0.75
LENGTHENING_STEP     0
MIN_SURFAREA         0
NORMAL_FLOW_LIMITED  SLOPE
SKIP_STEADY_STATE    NO
IGNORE_RAINFALL      NO
FORCE_MAIN_EQUATION  H-W
LINK_OFFSETS         DEPTH

[FILES]
SAVE RDII "rdii.txt"

[RAINGAGES]
;;               Rain      Recd.  Snow   Data
;;Name           Type      Freq.  Catch  Source
;;-------------- --------- ------ ------ ----------
3-2              VOLUME    0:05   1.0    TIMESERIES RAINFALL

[SUBCATCHMENTS]
;;                                                 Total    Pcnt.             Pcnt.    Curb     Snow
;;Name           Raingage         Outlet           Area     Imperv   Width    Slope    Length   Pack
;;-------------- ---------------- ---------------- -------- -------- -------- -------- -------- --------
LS33             3-2              330              1588.000000 25.000000 500.000000 0.500000 0.000000

[SUBAREAS]
;;Subcatchment   N-Imperv   N-Perv     S-Imperv   S-Perv     PctZero    RouteTo    PctRouted
;;-------------- ---------- ---------- ---------- ---------- ---------- ---------- ----------
LS33             0.100000   0.001000   0.050000   0.050000   25.000000  OUTLET

[INFILTRATION]
;;Subcatchment   MaxRate    MinRate    Decay      DryTime    MaxInfil
;;-------------- ---------- ---------- ---------- ---------- ----------
LS33             3.0        0.5        4          7          0

[JUNCTIONS]
;;               Invert     Max.       Init.      Surcharge  Ponded
;;Name           Elev.      Depth      Depth      Depth      Area
;;-------------- ---------- ---------- ---------- ---------- ----------
330              5.000000   5.000000   0.000000   0.000000   0.000000

[OUTFALLS]
;;               Invert     Outfall    Stage/Table      Tide
;;Name           Elev.      Type       Time Series      Gate
;;-------------- ---------- ---------- ---------------- ----
PS33             0.000000   FREE                        NO

[CONDUITS]
;;               Inlet            Outlet                      Manning    Inlet      Outlet     Init.      Max.
;;Name           Node             Node             Length     N          Offset     Offset     Flow       Flow
;;-------------- ---------------- ---------------- ---------- ---------- ---------- ---------- ---------- ----------
330              330              PS33             500.000000 0.010000   0.000000   0.000000   0.000000   0.000000

[XSECTIONS]
;;Link           Shape        Geom1            Geom2      Geom3      Geom4      Barrels
;;-------------- ------------ ---------------- ---------- ---------- ---------- ----------
330              CIRCULAR     2.000000         0.000000   0.000000   0.000000   1

[LOSSES]
;;Link           Inlet      Outlet     Average    Flap Gate
;;-------------- ---------- ---------- ---------- ----------
330              0.000000   0.000000   0.000000   NO

[CONTROLS]






[INFLOWS]
;;                                                 Param    Units    Scale    Baseline
;;Node           Parameter        Time Series      Type     Factor   Factor   Value
;;-------------- ---------------- ---------------- -------- -------- -------- --------
PS33             FLOW             ""               FLOW     1.0      1.000000

[HYDROGRAPHS]
;;               Rain Gage/
;;Name           Month            R1       T1       K1       R2       T2       K2       R3       T3       K3       IA_max   IA_rec   IA_init
;;-------------- ---------------- -------- -------- -------- -------- -------- -------- -------- -------- -------- -------- -------- --------
LS33             3-2
LS33             All              0.002000 2.200000 1.100000 0.002000 6.500000 1.600000 0.000000 10.000000 2.000000 0.060000 0.010000 0


[RDII]
;;Node           Unit Hydrograph  Sewer Area
;;-------------- ---------------- ----------
330              LS33             1588.000000
PS33             LS33             1588.000000

[TIMESERIES]
;;Name           Date       Time       Value
;;-------------- ---------- ---------- ----------
RAINFALL         04/01/2008 0:00       0.000000
RAINFALL         04/01/2008 0:05       0.000000
RAINFALL         04/01/2008 0:10       0.000000
RAINFALL         04/01/2008 0:15       0.000000
RAINFALL         04/01/2008 0:20       0.000000
RAINFALL         04/01/2008 0:25       0.000000
RAINFALL         04/01/2008 0:30       0.000000
RAINFALL         04/01/2008 0:35       0.000000
RAINFALL         04/01/2008 0:40       0.000000
RAINFALL         04/01/2008 0:45       0.000000
RAINFALL         04/01/2008 0:50       0.000000
RAINFALL         04/01/2008 0:55       0.000000
RAINFALL         04/01/2008 1:00       0.000000
RAINFALL         04/01/2008 1:05       0.000000
RAINFALL         04/01/2008 1:10       0.000000
RAINFALL         04/01/2008 1:15       0.000000
RAINFALL         04/01/2008 1:20       0.000000
RAINFALL         04/01/2008 1:25       0.000000
RAINFALL         04/01/2008 1:30       0.000000
RAINFALL         04/01/2008 1:35       0.000000
RAINFALL         04/01/2008 1:40       0.000000
RAINFALL         04/01/2008 1:45       0.000000
RAINFALL         04/01/2008 1:50       0.000000
RAINFALL         04/01/2008 1:55       0.000000
RAINFALL         04/01/2008 2:00       0.000000
RAINFALL         04/01/2008 2:05       0.000000
RAINFALL         04/01/2008 2:10       0.000000
RAINFALL         04/01/2008 2:15       0.000000
RAINFALL         04/01/2008 2:20       0.000000
RAINFALL         04/01/2008 2:25       0.000000
RAINFALL         04/01/2008 2:30       0.000000
RAINFALL         04/01/2008 2:35       0.000000
RAINFALL         04/01/2008 2:40       0.000000
RAINFALL         04/01/2008 2:45       0.000000
RAINFALL         04/01/2008 2:50       0.000000
RAINFALL         04/01/2008 2:55       0.000000
RAINFALL         04/01/2008 3:00       0.000000
RAINFALL         04/01/2008 3:05       0.000000
RAINFALL         04/01/2008 3:10       0.000000
RAINFALL         04/01/2008 3:15       0.000000
RAINFALL         04/01/2008 3:20       0.000000
RAINFALL         04/01/2008 3:25       0.000000
RAINFALL         04/01/2008 3:30       0.000000
RAINFALL         04/01/2008 3:35       0.000000
RAINFALL         04/01/2008 3:40       0.000000
RAINFALL         04/01/2008 3:45       0.000000
RAINFALL         04/01/2008 3:50       0.000000
RAINFALL         04/01/2008 3:55       0.000000
RAINFALL         04/01/2008 4:00       0.000000
RAINFALL         04/01/2008 4:05       0.000000
RAINFALL         04/01/2008 4:10       0.000000
RAINFALL         04/01/2008 4:15       0.000000
RAINFALL         04/01/2008 4:20       0.000000
RAINFALL         04/01/2008 4:25       0.000000
RAINFALL         04/01/2008 4:30       0.000000
RAINFALL         04/01/2008 4:35       0.000000
RAINFALL         04/01/2008 4:40       0.000000
RAINFALL         04/01/2008 4:45       0.000000
RAINFALL         04/01/2008 4:50       0.000000
RAINFALL         04/01/2008 4:55       0.000000
RAINFALL         04/01/2008 5:00       0.000000
RAINFALL         04/01/2008 5:05       0.000000
RAINFALL         04/01/2008 5:10       0.000000
RAINFALL         04/01/2008 5:15       0.000000
RAINFALL         04/01/2008 5:20       0.000000
RAINFALL         04/01/2008 5:25       0.000000
RAINFALL         04/01/2008 5:30       0.000000
RAINFALL         04/01/2008 5:35       0.000000
RAINFALL         04/01/2008 5:40       0.000000
RAINFALL         04/01/2008 5:45       0.000000
RAINFALL         04/01/2008 5:50       0.000000
RAINFALL         04/01/2008 5:55       0.000000
RAINFALL         04/01/2008 6:00       0.000000
RAINFALL         04/01/2008 6:05       0.000000
RAINFALL         04/01/2008 6:10       0.000000
RAINFALL         04/01/2008 6:15       0.000000
RAINFALL         04/01/2008 6:20       0.000000
RAINFALL         04/01/2008 6:25       0.000000
RAINFALL         04/01/2008 6:30       0.000000
RAINFALL         04/01/2008 6:35       0.000000
RAINFALL         04/01/2008 6:40       0.000000
RAINFALL         04/01/2008 6:45       0.000000
RAINFALL         04/01/2008 6:50       0.000000
RAINFALL         04/01/2008 6:55       0.000000
RAINFALL         04/01/2008 7:00       0.000000
RAINFALL         04/01/2008 7:05       0.000000
RAINFALL         04/01/2008 7:10       0.000000
RAINFALL         04/01/2008 7:15       0.000000
RAINFALL         04/01/2008 7:20       0.000000
RAINFALL         04/01/2008 7:25       0.000000
RAINFALL         04/01/2008 7:30       0.000000
RAINFALL         04/01/2008 7:35       0.000000
RAINFALL         04/01/2008 7:40       0.000000
RAINFALL         04/01/2008 7:45       0.000000
RAINFALL         04/01/2008 7:50       0.000000
RAINFALL         04/01/2008 7:55       0.000000
RAINFALL         04/01/2008 8:00       0.000000
RAINFALL         04/01/2008 8:05       0.000000
RAINFALL         04/01/2008 8:10       0.000000
RAINFALL         04/01/2008 8:15       0.000000
RAINFALL         04/01/2008 8:20       0.000000
RAINFALL         04/01/2008 8:25       0.000000
RAINFALL         04/01/2008 8:30       0.000000
RAINFALL         04/01/2008 8:35       0.000000
RAINFALL         04/01/2008 8:40       0.000000
RAINFALL         04/01/2008 8:45       0.000000
RAINFALL         04/01/2008 8:50       0.000000
RAINFALL         04/01/2008 8:55       0.000000
RAINFALL         04/01/2008 9:00       0.000000
RAINFALL         04/01/2008 9:05       0.000000
RAINFALL         04/01/2008 9:10       0.000000
RAINFALL         04/01/2008 9:15       0.000000
RAINFALL         04/01/2008 9:20       0.000000
RAINFALL         04/01/2008 9:25       0.000000
RAINFALL         04/01/2008 9:30       0.000000
RAINFALL         04/01/2008 9:35       0.000000
RAINFALL         04/01/2008 9:40       0.000000
RAINFALL         04/01/2008 9:45       0.000000
RAINFALL         04/01/2008 9:50       0.000000
RAINFALL         04/01/2008 9:55       0.000000
RAINFALL         04/01/2008 10:00      0.000000
RAINFALL         04/01/2008 10:05      0.000000
RAINFALL         04/01/2008 10:10      0.000000
RAINFALL         04/01/2008 10:15      0.000000
RAINFALL         04/01/2008 10:20      0.000000
RAINFALL         04/01/2008 10:25      0.000000
RAINFALL         04/01/2008 10:30      0.000000
RAINFALL         04/01/2008 10:35      0.000000
RAINFALL         04/01/2008 10:40      0.000000
RAINFALL         04/01/2008 10:45      0.000000
RAINFALL         04/01/2008 10:50      0.000000
RAINFALL         04/01/2008 10:55      0.000000
RAINFALL         04/01/2008 11:00      0.000000
RAINFALL         04/01/2008 11:05      0.000000
RAINFALL         04/01/2008 11:10      0.000000
RAINFALL         04/01/2008 11:15      0.000000
RAINFALL         04/01/2008 11:20      0.000000
RAINFALL         04/01/2008 11:25      0.000000
RAINFALL         04/01/2008 11:30      0.000000
RAINFALL         04/01/2008 11:35      0.000000
RAINFALL         04/01/2008 11:40      0.000000
RAINFALL         04/01/2008 11:45      0.000000
RAINFALL         04/01/2008 11:50      0.000000
RAINFALL         04/01/2008 11:55      0.000000
RAINFALL         04/01/2008 12:00      0.000000
RAINFALL         04/01/2008 12:05      0.000000
RAINFALL         04/01/2008 12:10      0.000000
RAINFALL         04/01/2008 12:15      0.000000
RAINFALL         04/01/2008 12:20      0.000000
RAINFALL         04/01/2008 12:25      0.000000
RAINFALL         04/01/2008 12:30      0.000000
RAINFALL         04/01/2008 12:35      0.000000
RAINFALL         04/01/2008 12:40      0.000000
RAINFALL         04/01/2008 12:45      0.000000
RAINFALL         04/01/2008 12:50      0.000000
RAINFALL         04/01/2008 12:55      0.000000
RAINFALL         04/01/2008 13:00      0.000000
RAINFALL         04/01/2008 13:05      0.000000
RAINFALL         04/01/2008 13:10      0.000000
RAINFALL         04/01/2008 13:15      0.000000
RAINFALL         04/01/2008 13:20      0.000000
RAINFALL         04/01/2008 13:25      0.000000
RAINFALL         04/01/2008 13:30      0.000000
RAINFALL         04/01/2008 13:35      0.000000
RAINFALL         04/01/2008 13:40      0.000000
RAINFALL         04/01/2008 13:45      0.000000
RAINFALL         04/01/2008 13:50      0.000000
RAINFALL         04/01/2008 13:55      0.000000
RAINFALL         04/01/2008 14:00      0.000000
RAINFALL         04/01/2008 14:05      0.000000
RAINFALL         04/01/2008 14:10      0.000000
RAINFALL         04/01/2008 14:15      0.000000
RAINFALL         04/01/2008 14:20      0.000000
RAINFALL         04/01/2008 14:25      0.000000
RAINFALL         04/01/2008 14:30      0.000000
RAINFALL         04/01/2008 14:35      0.000000
RAINFALL         04/01/2008 14:40      0.000000
RAINFALL         04/01/2008 14:45      0.000000
RAINFALL         04/01/2008 14:50      0.000000
RAINFALL         04/01/2008 14:55      0.000000
RAINFALL         04/01/2008 15:00      0.000000
RAINFALL         04/01/2008 15:05      0.000000
RAINFALL         04/01/2008 15:10      0.000000
RAINFALL         04/01/2008 15:15      0.000000
RAINFALL         04/01/2008 15:20      0.000000
RAINFALL         04/01/2008 15:25      0.000000
RAINFALL         04/01/2008 15:30      0.000000
RAINFALL         04/01/2008 15:35      0.000000
RAINFALL         04/01/2008 15:40      0.000000
RAINFALL         04/01/2008 15:45      0.000000
RAINFALL         04/01/2008 15:50      0.000000
RAINFALL         04/01/2008 15:55      0.000000
RAINFALL         04/01/2008 16:00      0.000000
RAINFALL         04/01/2008 16:05      0.000000
RAINFALL         04/01/2008 16:10      0.000000
RAINFALL         04/01/2008 16:15      0.000000
RAINFALL         04/01/2008 16:20      0.000000
RAINFALL         04/01/2008 16:25      0.000000
RAINFALL         04/01/2008 16:30      0.000000
RAINFALL         04/01/2008 16:35      0.000000
RAINFALL         04/01/2008 16:40      0.000000
RAINFALL         04/01/2008 16:45      0.000000
RAINFALL         04/01/2008 16:50      0.000000
RAINFALL         04/01/2008 16:55      0.000000
RAINFALL         04/01/2008 17:00      0.000000
RAINFALL         04/01/2008 17:05      0.000000
RAINFALL         04/01/2008 17:10      0.000000
RAINFALL         04/01/2008 17:15      0.000000
RAINFALL         04/01/2008 17:20      0.000000
RAINFALL         04/01/2008 17:25      0.000000
RAINFALL         04/01/2008 17:30      0.000000
RAINFALL         04/01/2008 17:35      0.000000
RAINFALL         04/01/2008 17:40      0.000000
RAINFALL         04/01/2008 17:45      0.000000
RAINFALL         04/01/2008 17:50      0.000000
RAINFALL         04/01/2008 17:55      0.000000
RAINFALL         04/01/2008 18:00      0.000000
RAINFALL         04/01/2008 18:05      0.000000
RAINFALL         04/01/2008 18:10      0.000000
RAINFALL         04/01/2008 18:15      0.000000
RAINFALL         04/01/2008 18:20      0.000000
RAINFALL         04/01/2008 18:25      0.000000
RAINFALL         04/01/2008 18:30      0.000000
RAINFALL         04/01/2008 18:35      0.000000
RAINFALL         04/01/2008 18:40      0.000000
RAINFALL         04/01/2008 18:45      0.000000
RAINFALL         04/01/2008 18:50      0.000000
RAINFALL         04/01/2008 18:55      0.000000
RAINFALL         04/01/2008 19:00      0.000000
RAINFALL         04/01/2008 19:05      0.000000
RAINFALL         04/01/2008 19:10      0.000000
RAINFALL         04/01/2008 19:15      0.000000
RAINFALL         04/01/2008 19:20      0.000000
RAINFALL         04/01/2008 19:25      0.000000
RAINFALL         04/01/2008 19:30      0.000000
RAINFALL         04/01/2008 19:35      0.000000
RAINFALL         04/01/2008 19:40      0.000000
RAINFALL         04/01/2008 19:45      0.000000
RAINFALL         04/01/2008 19:50      0.000000
RAINFALL         04/01/2008 19:55      0.000000
RAINFALL         04/01/2008 20:00      0.000000
RAINFALL         04/01/2008 20:05      0.000000
RAINFALL         04/01/2008 20:10      0.000000
RAINFALL         04/01/2008 20:15      0.000000
RAINFALL         04/01/2008 20:20      0.000000
RAINFALL         04/01/2008 20:25      0.000000
RAINFALL         04/01/2008 20:30      0.000000
RAINFALL         04/01/2008 20:35      0.000000
RAINFALL         04/01/2008 20:40      0.000000
RAINFALL         04/01/2008 20:45      0.000000
RAINFALL         04/01/2008 20:50      0.000000
RAINFALL         04/01/2008 20:55      0.000000
RAINFALL         04/01/2008 21:00      0.000000
RAINFALL         04/01/2008 21:05      0.000000
RAINFALL         04/01/2008 21:10      0.000000
RAINFALL         04/01/2008 21:15      0.000000
RAINFALL         04/01/2008 21:20      0.000000
RAINFALL         04/01/2008 21:25      0.000000
RAINFALL         04/01/2008 21:30      0.000000
RAINFALL         04/01/2008 21:35      0.000000
RAINFALL         04/01/2008 21:40      0.000000
RAINFALL         04/01/2008 21:45      0.000000
RAINFALL         04/01/2008 21:50      0.000000
RAINFALL         04/01/2008 21:55      0.000000
RAINFALL         04/01/2008 22:00      0.000000
RAINFALL         04/01/2008 22:05      0.000000
RAINFALL         04/01/2008 22:10      0.000000
RAINFALL         04/01/2008 22:15      0.000000
RAINFALL         04/01/2008 22:20      0.000000
RAINFALL         04/01/2008 22:25      0.000000
RAINFALL         04/01/2008 22:30      0.000000
RAINFALL         04/01/2008 22:35      0.000000
RAINFALL         04/01/2008 22:40      0.000000
RAINFALL         04/01/2008 22:45      0.000000
RAINFALL         04/01/2008 22:50      0.000000
RAINFALL         04/01/2008 22:55      0.000000
RAINFALL         04/01/2008 23:00      0.000000
RAINFALL         04/01/2008 23:05      0.000000
RAINFALL         04/01/2008 23:10      0.000000
RAINFALL         04/01/2008 23:15      0.000000
RAINFALL         04/01/2008 23:20      0.000000
RAINFALL         04/01/2008 23:25      0.000000
RAINFALL         04/01/2008 23:30      0.000000
RAINFALL         04/01/2008 23:35      0.000000
RAINFALL         04/01/2008 23:40      0.000000
RAINFALL         04/01/2008 23:45      0.000000
RAINFALL         04/01/2008 23:50      0.000000
RAINFALL         04/01/2008 23:55      0.000000
RAINFALL         04/02/2008 0:00       0.000000
RAINFALL         04/02/2008 0:05       0.000000
RAINFALL         04/02/2008 0:10       0.000000
RAINFALL         04/02/2008 0:15       0.000000
RAINFALL         04/02/2008 0:20       0.000000
RAINFALL         04/02/2008 0:25       0.000000
RAINFALL         04/02/2008 0:30       0.000000
RAINFALL         04/02/2008 0:35       0.000000
RAINFALL         04/02/2008 0:40       0.000000
RAINFALL         04/02/2008 0:45       0.000000
RAINFALL         04/02/2008 0:50       0.000000
RAINFALL         04/02/2008 0:55       0.000000
RAINFALL         04/02/2008 1:00       0.000000
RAINFALL         04/02/2008 1:05       0.000000
RAINFALL         04/02/2008 1:10       0.000000
RAINFALL         04/02/2008 1:15       0.000000
RAINFALL         04/02/2008 1:20       0.000000
RAINFALL         04/02/2008 1:25       0.000000
RAINFALL         04/02/2008 1:30       0.000000
RAINFALL         04/02/2008 1:35       0.000000
RAINFALL         04/02/2008 1:40       0.000000
RAINFALL         04/02/2008 1:45       0.000000
RAINFALL         04/02/2008 1:50       0.000000
RAINFALL         04/02/2008 1:55       0.000000
RAINFALL         04/02/2008 2:00       0.000000
RAINFALL         04/02/2008 2:05       0.000000
RAINFALL         04/02/2008 2:10       0.000000
RAINFALL         04/02/2008 2:15       0.000000
RAINFALL         04/02/2008 2:20       0.000000
RAINFALL         04/02/2008 2:25       0.000000
RAINFALL         04/02/2008 2:30       0.000000
RAINFALL         04/02/2008 2:35       0.000000
RAINFALL         04/02/2008 2:40       0.000000
RAINFALL         04/02/2008 2:45       0.000000
RAINFALL         04/02/2008 2:50       0.000000
RAINFALL         04/02/2008 2:55       0.000000
RAINFALL         04/02/2008 3:00       0.000000
RAINFALL         04/02/2008 3:05       0.000000
RAINFALL         04/02/2008 3:10       0.000000
RAINFALL         04/02/2008 3:15       0.000000
RAINFALL         04/02/2008 3:20       0.000000
RAINFALL         04/02/2008 3:25       0.000000
RAINFALL         04/02/2008 3:30       0.000000
RAINFALL         04/02/2008 3:35       0.000000
RAINFALL         04/02/2008 3:40       0.000000
RAINFALL         04/02/2008 3:45       0.000000
RAINFALL         04/02/2008 3:50       0.000000
RAINFALL         04/02/2008 3:55       0.000000
RAINFALL         04/02/2008 4:00       0.000000
RAINFALL         04/02/2008 4:05       0.000000
RAINFALL         04/02/2008 4:10       0.000000
RAINFALL         04/02/2008 4:15       0.000000
RAINFALL         04/02/2008 4:20       0.000000
RAINFALL         04/02/2008 4:25       0.000000
RAINFALL         04/02/2008 4:30       0.000000
RAINFALL         04/02/2008 4:35       0.000000
RAINFALL         04/02/2008 4:40       0.000000
RAINFALL         04/02/2008 4:45       0.000000
RAINFALL         04/02/2008 4:50       0.000000
RAINFALL         04/02/2008 4:55       0.000000
RAINFALL         04/02/2008 5:00       0.000000
RAINFALL         04/02/2008 5:05       0.000000
RAINFALL         04/02/2008 5:10       0.000000
RAINFALL         04/02/2008 5:15       0.000000
RAINFALL         04/02/2008 5:20       0.000000
RAINFALL         04/02/2008 5:25       0.000000
RAINFALL         04/02/2008 5:30       0.000000
RAINFALL         04/02/2008 5:35       0.000000
RAINFALL         04/02/2008 5:40       0.000000
RAINFALL         04/02/2008 5:45       0.000000
RAINFALL         04/02/2008 5:50       0.000000
RAINFALL         04/02/2008 5:55       0.000000
RAINFALL         04/02/2008 6:00       0.000000
RAINFALL         04/02/2008 6:05       0.000000
RAINFALL         04/02/2008 6:10       0.000000
RAINFALL         04/02/2008 6:15       0.000000
RAINFALL         04/02/2008 6:20       0.000000
RAINFALL         04/02/2008 6:25       0.000000
RAINFALL         04/02/2008 6:30       0.000000
RAINFALL         04/02/2008 6:35       0.000000
RAINFALL         04/02/2008 6:40       0.000000
RAINFALL         04/02/2008 6:45       0.000000
RAINFALL         04/02/2008 6:50       0.000000
RAINFALL         04/02/2008 6:55       0.000000
RAINFALL         04/02/2008 7:00       0.000000
RAINFALL         04/02/2008 7:05       0.000000
RAINFALL         04/02/2008 7:10       0.000000
RAINFALL         04/02/2008 7:15       0.000000
RAINFALL         04/02/2008 7:20       0.000000
RAINFALL         04/02/2008 7:25       0.000000
RAINFALL         04/02/2008 7:30       0.000000
RAINFALL         04/02/2008 7:35       0.000000
RAINFALL         04/02/2008 7:40       0.000000
RAINFALL         04/02/2008 7:45       0.000000
RAINFALL         04/02/2008 7:50       0.000000
RAINFALL         04/02/2008 7:55       0.000000
RAINFALL         04/02/2008 8:00       0.000000
RAINFALL         04/02/2008 8:05       0.000000
RAINFALL         04/02/2008 8:10       0.000000
RAINFALL         04/02/2008 8:15       0.000000
RAINFALL         04/02/2008 8:20       0.000000
RAINFALL         04/02/2008 8:25       0.000000
RAINFALL         04/02/2008 8:30       0.000000
RAINFALL         04/02/2008 8:35       0.000000
RAINFALL         04/02/2008 8:40       0.000000
RAINFALL         04/02/2008 8:45       0.000000
RAINFALL         04/02/2008 8:50       0.000000
RAINFALL         04/02/2008 8:55       0.000000
RAINFALL         04/02/2008 9:00       0.000000
RAINFALL         04/02/2008 9:05       0.000000
RAINFALL         04/02/2008 9:10       0.000000
RAINFALL         04/02/2008 9:15       0.000000
RAINFALL         04/02/2008 9:20       0.000000
RAINFALL         04/02/2008 9:25       0.000000
RAINFALL         04/02/2008 9:30       0.000000
RAINFALL         04/02/2008 9:35       0.000000
RAINFALL         04/02/2008 9:40       0.000000
RAINFALL         04/02/2008 9:45       0.000000
RAINFALL         04/02/2008 9:50       0.000000
RAINFALL         04/02/2008 9:55       0.000000
RAINFALL         04/02/2008 10:00      0.000000
RAINFALL         04/02/2008 10:05      0.000000
RAINFALL         04/02/2008 10:10      0.000000
RAINFALL         04/02/2008 10:15      0.000000
RAINFALL         04/02/2008 10:20      0.000000
RAINFALL         04/02/2008 10:25      0.000000
RAINFALL         04/02/2008 10:30      0.000000
RAINFALL         04/02/2008 10:35      0.000000
RAINFALL         04/02/2008 10:40      0.000000
RAINFALL         04/02/2008 10:45      0.000000
RAINFALL         04/02/2008 10:50      0.000000
RAINFALL         04/02/2008 10:55      0.000000
RAINFALL         04/02/2008 11:00      0.000000
RAINFALL         04/02/2008 11:05      0.000000
RAINFALL         04/02/2008 11:10      0.000000
RAINFALL         04/02/2008 11:15      0.000000
RAINFALL         04/02/2008 11:20      0.000000
RAINFALL         04/02/2008 11:25      0.000000
RAINFALL         04/02/2008 11:30      0.000000
RAINFALL         04/02/2008 11:35      0.000000
RAINFALL         04/02/2008 11:40      0.000000
RAINFALL         04/02/2008 11:45      0.000000
RAINFALL         04/02/2008 11:50      0.000000
RAINFALL         04/02/2008 11:55      0.000000
RAINFALL         04/02/2008 12:00      0.000000
RAINFALL         04/02/2008 12:05      0.000000
RAINFALL         04/02/2008 12:10      0.000000
RAINFALL         04/02/2008 12:15      0.000000
RAINFALL         04/02/2008 12:20      0.000000
RAINFALL         04/02/2008 12:25      0.000000
RAINFALL         04/02/2008 12:30      0.000000
RAINFALL         04/02/2008 12:35      0.000000
RAINFALL         04/02/2008 12:40      0.000000
RAINFALL         04/02/2008 12:45      0.000000
RAINFALL         04/02/2008 12:50      0.000000
RAINFALL         04/02/2008 12:55      0.000000
RAINFALL         04/02/2008 13:00      0.000000
RAINFALL         04/02/2008 13:05      0.000000
RAINFALL         04/02/2008 13:10      0.000000
RAINFALL         04/02/2008 13:15      0.000000
RAINFALL         04/02/2008 13:20      0.000000
RAINFALL         04/02/2008 13:25      0.000000
RAINFALL         04/02/2008 13:30      0.000000
RAINFALL         04/02/2008 13:35      0.000000
RAINFALL         04/02/2008 13:40      0.000000
RAINFALL         04/02/2008 13:45      0.000000
RAINFALL         04/02/2008 13:50      0.000000
RAINFALL         04/02/2008 13:55      0.000000
RAINFALL         04/02/2008 14:00      0.000000
RAINFALL         04/02/2008 14:05      0.000000
RAINFALL         04/02/2008 14:10      0.000000
RAINFALL         04/02/2008 14:15      0.000000
RAINFALL         04/02/2008 14:20      0.000000
RAINFALL         04/02/2008 14:25      0.000000
RAINFALL         04/02/2008 14:30      0.000000
RAINFALL         04/02/2008 14:35      0.000000
RAINFALL         04/02/2008 14:40      0.000000
RAINFALL         04/02/2008 14:45      0.000000
RAINFALL         04/02/2008 14:50      0.000000
RAINFALL         04/02/2008 14:55      0.000000
RAINFALL         04/02/2008 15:00      0.000000
RAINFALL         04/02/2008 15:05      0.000000
RAINFALL         04/02/2008 15:10      0.000000
RAINFALL         04/02/2008 15:15      0.000000
RAINFALL         04/02/2008 15:20      0.000000
RAINFALL         04/02/2008 15:25      0.000000
RAINFALL         04/02/2008 15:30      0.000000
RAINFALL         04/02/2008 15:35      0.000000
RAINFALL         04/02/2008 15:40      0.000000
RAINFALL         04/02/2008 15:45      0.000000
RAINFALL         04/02/2008 15:50      0.000000
RAINFALL         04/02/2008 15:55      0.000000
RAINFALL         04/02/2008 16:00      0.000000
RAINFALL         04/02/2008 16:05      0.000000
RAINFALL         04/02/2008 16:10      0.000000
RAINFALL         04/02/2008 16:15      0.000000
RAINFALL         04/02/2008 16:20      0.000000
RAINFALL         04/02/2008 16:25      0.000000
RAINFALL         04/02/2008 16:30      0.000000
RAINFALL         04/02/2008 16:35      0.000000
RAINFALL         04/02/2008 16:40      0.000000
RAINFALL         04/02/2008 16:45      0.000000
RAINFALL         04/02/2008 16:50      0.000000
RAINFALL         04/02/2008 16:55      0.000000
RAINFALL         04/02/2008 17:00      0.000000
RAINFALL         04/02/2008 17:05      0.000000
RAINFALL         04/02/2008 17:10      0.000000
RAINFALL         04/02/2008 17:15      0.000000
RAINFALL         04/02/2008 17:20      0.000000
RAINFALL         04/02/2008 17:25      0.000000
RAINFALL         04/02/2008 17:30      0.000000
RAINFALL         04/02/2008 17:35      0.000000
RAINFALL         04/02/2008 17:40      0.000000
RAINFALL         04/02/2008 17:45      0.000000
RAINFALL         04/02/2008 17:50      0.000000
RAINFALL         04/02/2008 17:55      0.000000
RAINFALL         04/02/2008 18:00      0.000000
RAINFALL         04/02/2008 18:05      0.000000
RAINFALL         04/02/2008 18:10      0.000000
RAINFALL         04/02/2008 18:15      0.000000
RAINFALL         04/02/2008 18:20      0.000000
RAINFALL         04/02/2008 18:25      0.000000
RAINFALL         04/02/2008 18:30      0.000000
RAINFALL         04/02/2008 18:35      0.000000
RAINFALL         04/02/2008 18:40      0.000000
RAINFALL         04/02/2008 18:45      0.000000
RAINFALL         04/02/2008 18:50      0.000000
RAINFALL         04/02/2008 18:55      0.000000
RAINFALL         04/02/2008 19:00      0.000000
RAINFALL         04/02/2008 19:05      0.000000
RAINFALL         04/02/2008 19:10      0.000000
RAINFALL         04/02/2008 19:15      0.000000
RAINFALL         04/02/2008 19:20      0.000000
RAINFALL         04/02/2008 19:25      0.000000
RAINFALL         04/02/2008 19:30      0.000000
RAINFALL         04/02/2008 19:35      0.000000
RAINFALL         04/02/2008 19:40      0.000000
RAINFALL         04/02/2008 19:45      0.000000
RAINFALL         04/02/2008 19:50      0.000000
RAINFALL         04/02/2008 19:55      0.000000
RAINFALL         04/02/2008 20:00      0.000000
RAINFALL         04/02/2008 20:05      0.000000