[TITLE]
;;Project Title/Notes

[OPTIONS]
;;Option             Value
FLOW_UNITS           CFS
INFILTRATION         HORTON
FLOW_ROUTING         DYNWAVE
LINK_OFFSETS         DEPTH
MIN_SLOPE            0
ALLOW_PONDING        YES
SKIP_STEADY_STATE    NO

START_DATE           01/01/2002
START_TIME           00:00:00
REPORT_START_DATE    01/01/2002
REPORT_START_TIME    00:00:00
END_DATE             01/01/2002
END_TIME             23:00:00
SWEEP_START          01/01
SWEEP_END            12/31
DRY_DAYS             5.000000
REPORT_STEP          00:05:00
WET_STEP             00:05:00
DRY_STEP             23:00:00
ROUTING_STEP         0:00:20 

INERTIAL_DAMPING     PARTIAL
NORMAL_FLOW_LIMITED  SLOPE
FORCE_MAIN_EQUATION  H-W
VARIABLE_STEP        0.00
LENGTHENING_STEP     0
MIN_SURFAREA         0
MAX_TRIALS           0
HEAD_TOLERANCE       0
SYS_FLOW_TOL         5
LAT_FLOW_TOL         5
MINIMUM_STEP         0.5
THREADS              1

[EVAPORATION]
;;Data Source    Parameters
;;-------------- ----------------
CONSTANT         0.0
DRY_ONLY         NO

[RAINGAGES]
;;Name           Format    Interval SCF      Source    
;;-------------- --------- ------ ------ ----------
; New Raingage
RAINGAGE-1       VOLUME    0.083333 1.000000 TIMESERIES 100-YR          

[JUNCTIONS]
;;Name           Elevation  MaxDepth   InitDepth  SurDepth   Aponded   
;;-------------- ---------- ---------- ---------- ---------- ----------
JCT-10           701.406000 4.000000   0.000000   1.000000   0.000000  
JCT-12           698.272000 4.000000   0.000000   1.000000   11262.584183
JCT-14           697.639000 5.000000   0.000000   1.000000   0.000000  
JCT-16           692.542000 4.000000   0.000000   1.000000   0.000000  
JCT-18           684.274000 4.000000   0.000000   1.000000   487354.239641
JCT-20           679.478000 4.000000   0.000000   1.000000   0.000000  
JCT-22           698.757000 4.000000   0.000000   1.000000   0.000000  
JCT-24           696.237000 6.000000   0.000000   1.000000   0.000000  
JCT-26           694.246000 7.000000   0.000000   1.000000   4021.978579
JCT-28           693.628000 4.000000   0.000000   1.000000   465099.107168
JCT-30           688.017000 4.000000   0.000000   1.000000   25631.240974
JCT-32           683.731000 4.000000   0.000000   1.000000   754.582611
JCT-34           682.754000 4.000000   0.000000   1.000000   17144.757931
JCT-36           689.063000 4.000000   0.000000   1.000000   0.000000  
JCT-38           688.105000 4.000000   0.000000   1.000000   11169.024665
JCT-40           696.921000 4.000000   0.000000   1.000000   0.000000  
; New Junction
JCT-42           693.173000 4.000000   0.000000   1.000000   0.000000  
JCT-44           698.286000 3.000000   0.000000   1.000000   0.000000  
JCT-46           692.757000 2.500000   0.000000   1.000000   0.000000  
JCT-48           689.623000 4.000000   0.000000   1.000000   0.000000  
JCT-50           696.486000 3.000000   0.000000   1.000000   0.000000  
JCT-52           696.943000 4.000000   0.000000   1.000000   0.000000  
JCT-54           694.261000 4.000000   0.000000   1.000000   0.000000  

[OUTFALLS]
;;Name           Elevation  Type       Stage Data       Gated    Route To        
;;-------------- ---------- ---------- ---------------- -------- ----------------
; New Outfall
OFALL-10         0.000000   FREE                        NO                       

[CONDUITS]
;;Name           From Node        To Node          Length     Roughness  InOffset   OutOffset  InitFlow   MaxFlow   
;;-------------- ---------------- ---------------- ---------- ---------- ---------- ---------- ---------- ----------
CDT-11           JCT-10           JCT-12           277.146946 0.010000   0.000000   0.000000   0.000000   0.000000  
CDT-13           JCT-12           JCT-14           219.420996 0.010000   0.000000   0.000000   0.000000   0.000000  
CDT-15           JCT-14           JCT-16           241.078351 0.010000   0.000000   0.000000   0.000000   0.000000  
CDT-17           JCT-16           JCT-18           240.997853 0.010000   0.000000   0.000000   0.000000   0.000000  
CDT-19           JCT-18           JCT-20           237.809979 0.010000   0.000000   0.000000   0.000000   0.000000  
CDT-21           JCT-20           OFALL-10         320.822398 0.010000   0.000000   0.000000   0.000000   0.000000  
CDT-23           JCT-22           JCT-24           262.649025 0.010000   0.000000   0.000000   0.000000   0.000000  
CDT-25           JCT-24           JCT-26           219.656680 0.010000   0.000000   0.000000   0.000000   0.000000  
CDT-27           JCT-26           JCT-28           251.786451 0.010000   0.000000   0.000000   0.000000   0.000000  
CDT-29           JCT-28           JCT-30           236.418868 0.010000   0.000000   0.000000   0.000000   0.000000  
CDT-31           JCT-30           JCT-32           208.880629 0.010000   0.000000   0.000000   0.000000   0.000000  
CDT-33           JCT-32           JCT-34           89.337250  0.010000   0.000000   0.000000   0.000000   0.000000  
CDT-35           JCT-34           JCT-20           284.493980 0.010000   0.000000   0.000000   0.000000   0.000000  
CDT-37           JCT-36           JCT-38           266.171388 0.010000   0.000000   0.000000   0.000000   0.000000  
CDT-39           JCT-38           JCT-32           395.771158 0.010000   0.000000   0.000000   0.000000   0.000000  
CDT-41           JCT-40           JCT-42           246.726591 0.010000   0.000000   0.000000   0.000000   0.000000  
; New Conduit
CDT-43           JCT-42           JCT-30           399.285432 0.010000   0.000000   0.000000   0.000000   0.000000  
CDT-45           JCT-44           JCT-12           309.326986 0.010000   0.000000   0.000000   0.000000   0.000000  
CDT-47           JCT-46           JCT-16           323.712386 0.010000   0.000000   0.000000   0.000000   0.000000  
CDT-49           JCT-48           JCT-20           327.288987 0.010000   0.000000   0.000000   0.000000   0.000000  
CDT-51           JCT-50           JCT-24           384.901528 0.010000   0.000000   0.000000   0.000000   0.000000  
CDT-53           JCT-52           JCT-54           262.649024 0.010000   0.000000   0.000000   0.000000   0.000000  
CDT-55           JCT-54           JCT-28           194.647884 0.010000   0.000000   0.000000   0.000000   0.000000  

[XSECTIONS]
;;Link           Shape        Geom1            Geom2      Geom3      Geom4      Barrels    Culvert   
;;-------------- ------------ ---------------- ---------- ---------- ---------- ---------- ----------
CDT-11           CIRCULAR     0.500000         0.000000   0.000000   0.000000   1          0         
CDT-13           CIRCULAR     0.500000         0.000000   0.000000   0.000000   1          0         
CDT-15           CIRCULAR     0.500000         0.000000   0.000000   0.000000   1          0         
CDT-17           CIRCULAR     0.500000         0.000000   0.000000   0.000000   1          0         
CDT-19           CIRCULAR     0.500000         0.000000   0.000000   0.000000   1          0         
CDT-21           CIRCULAR     0.500000         0.000000   0.000000   0.000000   1          0         
CDT-23           CIRCULAR     0.500000         0.000000   0.000000   0.000000   1          0         
CDT-25           CIRCULAR     0.500000         0.000000   0.000000   0.000000   1          0         
CDT-27           CIRCULAR     0.500000         0.000000   0.000000   0.000000   1          0         
CDT-29           CIRCULAR     0.500000         0.000000   0.000000   0.000000   1          0         
CDT-31           CIRCULAR     0.500000         0.000000   0.000000   0.000000   1          0         
CDT-33           CIRCULAR     0.500000         0.000000   0.000000   0.000000   1          0         
CDT-35           CIRCULAR     0.500000         0.000000   0.000000   0.000000   1          0         
CDT-37           CIRCULAR     0.500000         0.000000   0.000000   0.000000   1          0         
CDT-39           CIRCULAR     0.500000         0.000000   0.000000   0.000000   1          0         
CDT-41           CIRCULAR     0.500000         0.000000   0.000000   0.000000   1          0         
CDT-43           CIRCULAR     0.500000         0.000000   0.000000   0.000000   1          0         
CDT-45           CIRCULAR     0.500000         0.000000   0.000000   0.000000   1          0         
CDT-47           CIRCULAR     0.500000         0.000000   0.000000   0.000000   1          0         
CDT-49           CIRCULAR     0.500000         0.000000   0.000000   0.000000   1          0         
CDT-51           CIRCULAR     0.500000         0.000000   0.000000   0.000000   1          0         
CDT-53           CIRCULAR     0.500000         0.000000   0.000000   0.000000   1          0         
CDT-55           CIRCULAR     0.500000         0.000000   0.000000   0.000000   1          0         

[LOSSES]
;;Link           Kentry     Kexit      Kavg       Flap Gate  Seepage   
;;-------------- ---------- ---------- ---------- ---------- ----------
CDT-11           0.000000   0.000000   0.000000   NO         0.000000  
CDT-13           0.000000   0.000000   0.000000   NO         0.000000  
CDT-15           0.000000   0.000000   0.000000   NO         0.000000  
CDT-17           0.000000   0.000000   0.000000   NO         0.000000  
CDT-19           0.000000   0.000000   0.000000   NO         0.000000  
CDT-21           0.000000   0.000000   0.000000   NO         0.000000  
CDT-23           0.000000   0.000000   0.000000   NO         0.000000  
CDT-25           0.000000   0.000000   0.000000   NO         0.000000  
CDT-27           0.000000   0.000000   0.000000   NO         0.000000  
CDT-29           0.000000   0.000000   0.000000   NO         0.000000  
CDT-31           0.000000   0.000000   0.000000   NO         0.000000  
CDT-33           0.000000   0.000000   0.000000   NO         0.000000  
CDT-35           0.000000   0.000000   0.000000   NO         0.000000  
CDT-37           0.000000   0.000000   0.000000   NO         0.000000  
CDT-39           0.000000   0.000000   0.000000   NO         0.000000  
CDT-41           0.000000   0.000000   0.000000   NO         0.000000  
CDT-43           0.000000   0.000000   0.000000   NO         0.000000  
CDT-45           0.000000   0.000000   0.000000   NO         0.000000  
CDT-47           0.000000   0.000000   0.000000   NO         0.000000  
CDT-49           0.000000   0.000000   0.000000   NO         0.000000  
CDT-51           0.000000   0.000000   0.000000   NO         0.000000  
CDT-53           0.000000   0.000000   0.000000   NO         0.000000  
CDT-55           0.000000   0.000000   0.000000   NO         0.000000  

[CONTROLS]


[HYDROGRAPHS]
;;Hydrograph     Rain Gage/Month  Response R        T        K        Dmax     Drecov   Dinit   
;;-------------- ---------------- -------- -------- -------- -------- -------- -------- --------
UH_001           RAINGAGE-1      
UH_001           All              Short    0.010000 0.250000 3.000000 0.000000 0.000000 0.000000
UH_001           All              Medium   0.002000 1.000000 2.000000 0.000000 0.000000 0.000000
UH_001           All              Long     0.003000 10.000000 2.000000 0.000000 0.000000 0.000000


[RDII]
;;Node           Unit Hydrograph  Sewer Area
;;-------------- ---------------- ----------
JCT-10           UH_001           3.450572  
JCT-12           UH_001           1.760829  
JCT-14           UH_001           1.878511  
JCT-16           UH_001           1.785812  
JCT-18           UH_001           2.100493  
JCT-20           UH_001           2.669654  
JCT-22           UH_001           3.483612  
JCT-24           UH_001           1.898472  
JCT-26           UH_001           1.667381  
JCT-28           UH_001           1.401471  
JCT-30           UH_001           1.974584  
JCT-32           UH_001           1.601826  
JCT-34           UH_001           2.290236  
JCT-36           UH_001           3.935570  
JCT-38           UH_001           2.984266  
JCT-40           UH_001           3.112486  
JCT-42           UH_001           1.950144  
JCT-44           UH_001           4.140864  
JCT-46           UH_001           4.290232  
JCT-48           UH_001           4.367800  
JCT-50           UH_001           4.677175  
JCT-52           UH_001           2.149908  
JCT-54           UH_001           1.772622  
OFALL-10         UH_001           0.000230  

[TIMESERIES]
;;Name           Date       Time       Value     
;;-------------- ---------- ---------- ----------
10_YR                       0:00       0.000000  
10_YR                       0:15       0.000000  
10_YR                       0:30       0.000000  
10_YR                       0:45       0.000000  
10_YR                       1:00       0.000000  
10_YR                       1:15       0.000000  
10_YR                       1:30       0.000000  
10_YR                       1:45       0.001100  
10_YR                       2:00       0.001100  
10_YR                       2:15       0.001100  
10_YR                       2:30       0.001100  
10_YR                       2:45       0.001100  
10_YR                       3:00       0.001100  
10_YR                       3:15       0.002200  
10_YR                       3:30       0.002200  
10_YR                       3:45       0.002200  
10_YR                       4:00       0.003300  
10_YR                       4:15       0.004400  
10_YR                       4:30       0.004400  
10_YR                       4:45       0.005500  
10_YR                       5:00       0.006600  
10_YR                       5:15       0.007700  
10_YR                       5:30       0.009900  
10_YR                       5:45       0.012100  
10_YR                       6:00       0.014300  
10_YR                       6:15       0.016500  
10_YR                       6:30       0.019800  
10_YR                       6:45       0.024200  
10_YR                       7:00       0.028600  
10_YR                       7:15       0.034100  
10_YR                       7:30       0.041800  
10_YR                       7:45       0.049500  
10_YR                       8:00       0.059400  
10_YR                       8:15       0.071500  
10_YR                       8:30       0.085800  
10_YR                       8:45       0.103400  
10_YR                       9:00       0.124300  
10_YR                       9:15       0.148500  
10_YR                       9:30       0.178200  
10_YR                       9:45       0.213400  
10_YR                       10:00      0.256300  
10_YR                       10:15      0.308000  
10_YR                       10:30      0.369600  
10_YR                       10:45      0.443300  
10_YR                       11:00      0.532400  
10_YR                       11:15      0.639100  
10_YR                       11:30      0.766700  
10_YR                       11:45      0.919600  
10_YR                       12:00      1.103300  
10_YR                       12:15      0.919600  
10_YR                       12:30      0.766700  
10_YR                       12:45      0.639100  
10_YR                       13:00      0.532400  
10_YR                       13:15      0.443300  
10_YR                       13:30      0.369600  
10_YR                       13:45      0.308000  
10_YR                       14:00      0.256300  
10_YR                       14:15      0.213400  
10_YR                       14:30      0.178200  
10_YR                       14:45      0.148500  
10_YR                       15:00      0.124300  
10_YR                       15:15      0.103400  
10_YR                       15:30      0.085800  
10_YR                       15:45      0.071500  
10_YR                       16:00      0.059400  
10_YR                       16:15      0.049500  
10_YR                       16:30      0.041800  
10_YR                       16:45      0.034100  
10_YR                       17:00      0.028600  
10_YR                       17:15      0.024200  
10_YR                       17:30      0.019800  
10_YR                       17:45      0.016500  
10_YR                       18:00      0.014300  
10_YR                       18:15      0.012100  
10_YR                       18:30      0.009900  
10_YR                       18:45      0.007700  
10_YR                       19:00      0.006600  
10_YR                       19:15      0.005500  
10_YR                       19:30      0.004400  
10_YR                       19:45      0.004400  
10_YR                       20:00      0.003300  
10_YR                       20:15      0.002200  
10_YR                       20:30      0.002200  
10_YR                       20:45      0.002200  
10_YR                       21:00      0.001100  
10_YR                       21:15      0.001100  
10_YR                       21:30      0.001100  
10_YR                       21:45      0.001100  
10_YR                       22:00      0.001100  
10_YR                       22:15      0.001100  
10_YR                       22:30      0.000000  
10_YR                       22:45      0.000000  
10_YR                       23:00      0.000000  
10_YR                       23:15      0.000000  
10_YR                       23:30      0.000000  
10_YR                       23:45      0.000000  
;
100-YR                      0:00       0.000000  
100-YR                      0:15       0.000000  
100-YR                      0:30       0.000000  
100-YR                      0:45       0.000000  
100-YR                      1:00       0.000000  
100-YR                      1:15       0.000000  
100-YR                      1:30       0.000000  
100-YR                      1:45       0.004400  
100-YR                      2:00       0.004400  
100-YR                      2:15       0.004400  
100-YR                      2:30       0.004400  
100-YR                      2:45       0.004400  
100-YR                      3:00       0.004400  
100-YR                      3:15       0.008800  
100-YR                      3:30       0.008800  
100-YR                      3:45       0.008800  
100-YR                      4:00       0.013200  
100-YR                      4:15       0.017600  
100-YR                      4:30       0.017600  
100-YR                      4:45       0.022000  
100-YR                      5:00       0.026400  
100-YR                      5:15       0.030800  
100-YR                      5:30       0.039600  
100-YR                      5:45       0.048400  
100-YR                      6:00       0.057200  
100-YR                      6:15       0.066000  
100-YR                      6:30       0.079200  
100-YR                      6:45       0.096800  
100-YR                      7:00       0.114400  
100-YR                      7:15       0.136400  
100-YR                      7:30       0.167200  
100-YR                      7:45       0.198000  
100-YR                      8:00       0.237600  
100-YR                      8:15       0.286000  
100-YR                      8:30       0.343200  
100-YR                      8:45       0.413600  
100-YR                      9:00       0.497200  
100-YR                      9:15       0.594000  
100-YR                      9:30       0.712800  
100-YR                      9:45       0.853600  
100-YR                      10:00      1.025200  
100-YR                      10:15      1.232000  
100-YR                      10:30      1.478400  
100-YR                      10:45      1.773200  
100-YR                      11:00      2.129600  
100-YR                      11:15      2.556400  
100-YR                      11:30      3.066800  
100-YR                      11:45      3.678400  
100-YR                      12:00      4.413200  
100-YR                      12:15      3.678400  
100-YR                      12:30      3.066800  
100-YR                      12:45      2.556400  
100-YR                      13:00      2.129600  
100-YR                      13:15      1.773200  
100-YR                      13:30      1.478400  
100-YR                      13:45      1.232000  
100-YR                      14:00      1.025200  
100-YR                      14:15      0.853600  
100-YR                      14:30      0.712800  
100-YR                      14:45      0.594000  
100-YR                      15:00      0.497200  
100-YR                      15:15      0.413600  
100-YR                      15:30      0.343200  
100-YR                      15:45      0.286000  
100-YR                      16:00      0.237600  
100-YR                      16:15      0.198000  
100-YR                      16:30      0.167200  
100-YR                      16:45      0.136400  
100-YR                      17:00      0.114400  
100-YR                      17:15      0.096800  
100-YR                      17:30      0.079200  
100-YR                      17:45      0.066000  
100-YR                      18:00      0.057200  
100-YR                      18:15      0.048400  
100-YR                      18:30      0.039600  
100-YR                      18:45      0.030800  
100-YR                      19:00      0.026400  
100-YR                      19:15      0.022000  
100-YR                      19:30      0.017600  
100-YR                      19:45      0.017600  
100-YR                      20:00      0.013200  
100-YR                      20:15      0.008800  
100-YR                      20:30      0.008800  
100-YR                      20:45      0.008800  
100-YR                      21:00      0.004400  
100-YR                      21:15      0.004400  
100-YR                      21:30      0.004400  
100-YR                      21:45      0.004400  
100-YR                      22:00      0.004400  
100-YR                      22:15      0.004400  
100-YR                      22:30      0.000000  
100-YR                      22:45      0.000000  
100-YR                      23:00      0.000000  
100-YR                      23:15      0.000000  
100-YR                      23:30      0.000000  
100-YR                      23:45      0.000000  

[REPORT]
;;Reporting Options
INPUT      NO
CONTROLS   NO
SUBCATCHMENTS ALL
NODES ALL
LINKS ALL

[TAGS]

[MAP]
DIMENSIONS 1032217.415 1859985.957 1033906.730 1861477.460
Units      None

[COORDINATES]
;;Node           X-Coord            Y-Coord           
;;-------------- ------------------ ------------------
JCT-10           1032294.202        1861107.551       
JCT-12           1032571.139        1861096.762       
JCT-14           1032790.531        1861093.165       
JCT-16           1033031.502        1861085.972       
JCT-18           1033272.473        1861082.375       
JCT-20           1033509.847        1861067.989       
JCT-22           1032300.306        1860797.004       
JCT-24           1032556.753        1860787.456       
JCT-26           1032776.145        1860776.666       
JCT-28           1032983.757        1860770.604       
JCT-30           1033258.087        1860726.314       
JCT-32           1033466.688        1860715.524       
JCT-34           1033524.234        1860783.859       
JCT-36           1033473.881        1860053.753       
JCT-38           1033477.478        1860319.900       
JCT-40           1033053.081        1860179.633       
JCT-42           1033250.893        1860327.093       
JCT-44           1032574.736        1861406.068       
JCT-46           1033027.905        1861409.664       
JCT-48           1033509.847        1861395.278       
JCT-50           1032549.560        1860402.621       
JCT-52           1032966.763        1860330.690       
JCT-54           1032973.957        1860593.240       
OFALL-10         1033829.943        1861046.410       

[VERTICES]
;;Link           X-Coord            Y-Coord           
;;-------------- ------------------ ------------------

[SYMBOLS]
;;Gage           X-Coord            Y-Coord           
;;-------------- ------------------ ------------------
RAINGAGE-1       1033104.021        1860307.148       

