[TITLE]
Scenario Run :  WRONG_INTERVAL
 SW 1 0 9A1 'BROWARD COUNTY Multi FAMILY SITE - Runoff example # 47'A2 'RUNO


[OPTIONS]
;Option and Files Scenario Set: BASE, Base Simulation Options
FLOW_UNITS	CFS
INFILTRATION	GREEN_AMPT
FLOW_ROUTING	DYNWAVE
ALLOW_PONDING	NO
DRY_DAYS	7.000000
SKIP_STEADY_STATE 	NO
IGNORE_RAINFALL	NO
IGNORE_SNOWMELT	YES
IGNORE_GROUNDWATER	YES
IGNORE_QUALITY	NO
FORCE_MAIN_EQUATION	H-W
LINK_OFFSETS	DEPTH
MIN_SLOPE	0.000000
START_DATE	07/15/1977
START_TIME	00:00
END_DATE	07/23/1977
END_TIME	00:00
REPORT_START_DATE	07/15/1977
REPORT_START_TIME	00:00
SWEEP_START	01/01
SWEEP_END	12/31
WET_STEP	00:01:00
DRY_STEP	00:01:00
ROUTING_STEP	10.000000
REPORT_STEP	00:00:30
INERTIAL_DAMPING	NONE
VARIABLE_STEP	0.750000
LENGTHENING_STEP	0
MIN_SURFAREA	12.566000
NORMAL_FLOW_LIMITED	BOTH

[FILES]
SAVE RUNOFF	"C:\ProgramData\MWH Soft\Temp\HM1Vdb\HMVDB32\RUNOFF47.INT"

[RAINGAGES]
GAGE1	INTENSITY	0.083333	1.000000	TIMESERIES	RAINSERIES1

[HYDROGRAPHS]

[EVAPORATION]
CONSTANT	0.100000
DRY_ONLY	NO
RECOVERY	EVAPORATION

[TEMPERATURE]
; BASE Run Climatology Settings

[SUBCATCHMENTS]
CA-1	GAGE1	P001	4.999000	39.000000	600.000000	2.700000	0.000000
CA-11	GAGE1	CA-8	3.580000	47.000000	600.000000	0.000000	0.000000
CA-7	GAGE1	P005	1.599000	48.600000	200.000000	2.700000	0.000000
CA-8	GAGE1	P009	4.565000	46.700000	500.000000	0.000000	0.000000

[SUBAREAS]
CA-1	0.015000	0.410000	0.060000	0.200000	25.000000	OUTLET
CA-11	0.015000	0.410000	0.060000	0.200000	25.000000	OUTLET
CA-7	0.015000	0.410000	0.060000	0.200000	25.000000	OUTLET
CA-8	0.015000	0.410000	0.060000	0.200000	25.000000	OUTLET

[INFILTRATION]
CA-1	5.000000	0.300000	0.060000
CA-11	5.000000	0.300000	0.060000
CA-7	5.000000	0.300000	0.060000
CA-8	5.000000	0.300000	0.060000

[AQUIFERS]
BROWARD	0.500000	0.150000	0.300000	5.000000	10.000000	15.000000	0.350000	14.000000	0.002000	0.000000	10.000000	0.300000

[GROUNDWATER]
CA-11	BROWARD	P009	10.000000	0.010000	1.000000	0.010000	1.000000	0.000000	2.000000

[SNOWPACKS]

[JUNCTIONS]
P001	1.100000	20.000000	0.000000	0.000000	0.000000
; Runoff Node
P009	3.600000	20.000000	0.000000	0.000000	0.000000
; Runoff Node
P011	2.890000	20.000000	0.000000	0.000000	0.000000

[OUTFALLS]
OUTLET	0.000000	FREE	NO

[DIVIDERS]

[STORAGE]
P005	1.580000	20.000000	0.000000	FUNCTIONAL	1000.000000	0.000000	0.000000	0.000000	1.000000

[CONDUITS]
P001	P001	OUTLET	220.000000	0.015000	0.000000	0.000000	0.000000	0.000000
P005	P005	P001	240.000000	0.015000	0.000000	0.000000	0.000000	0.000000
P009	P009	P005	505.000000	0.024000	0.000000	0.000000	0.000000	0.000000
P011	P011	P005	655.000000	0.024000	0.000000	0.000000	0.000000	0.000000

[PUMPS]

[ORIFICES]

[WEIRS]

[XSECTIONS]
P001	CIRCULAR	4.000000	0.000000	0.000000	0.000000	1	0
P005	CIRCULAR	3.000000	0.000000	0.000000	0.000000	1	0
P009	CIRCULAR	2.250000	0.000000	0.000000	0.000000	1	0
P011	CIRCULAR	2.500000	0.000000	0.000000	0.000000	1	0

[TRANSECTS]

[LOSSES]
P001	0.000000	0.000000	0.000000	NO
P005	0.000000	0.000000	0.000000	NO
P009	0.000000	0.000000	0.000000	NO
P011	0.000000	0.000000	0.000000	NO

[CONTROLS]

[POLLUTANTS]
COD	MG/L	5.000000	0.000000	0.000000	0.500000	NO	*	0.000000	0.000000
TOT.SOL	MG/L	5.000000	0.000000	0.000000	0.000000	NO	*	0.000000	0.000000
TOT.NIT	MG/L	0.300000	0.000000	0.000000	0.000000	NO	*	0.000000	0.000000
TSS	MG/L	5.000000	0.000000	0.000000	0.000000	NO	*	0.000000	0.000000
O-PO4-P	MG/L	0.002000	0.000000	0.000000	0.000000	NO	*	0.000000	0.000000

[LANDUSES]
HOUSING	0.000000	0.000000	0.000000

[COVERAGES]
CA-1	HOUSING	100.000000
CA-11	HOUSING	100.000000
CA-7	HOUSING	100.000000
CA-8	HOUSING	100.000000

[BUILDUP]
HOUSING	COD	POW	100000.000000	1.000000	3.000000	AREA
HOUSING	TOT.SOL	POW	100000.000000	1.000000	3.500000	AREA
HOUSING	TOT.NIT	POW	100000.000000	1.000000	1.100000	AREA
HOUSING	TSS	POW	100000.000000	1.000000	3.500000	AREA
HOUSING	O-PO4-P	POW	100.000000	1.000000	1.002000	AREA

[WASHOFF]
HOUSING	COD	EXP	2.000000	1.400000	35.000000	0.330000
HOUSING	TOT.SOL	EXP	20.000000	1.500000	40.000000	0.000000
HOUSING	TOT.NIT	EXP	0.500000	1.500000	45.000000	0.000000
HOUSING	TSS	EXP	100.000000	1.500000	40.000000	0.000000
HOUSING	O-PO4-P	EXP	1.000000	1.600000	25.000000	0.000000

[TREATMENT]
P011	COD	R =  0.25 * COD
P011	TSS	R = 0.25 * TSS

[INFLOWS]
P011	FLOW	""	FLOW  1.0	1.000000	1.000000	EVAPORATION

[DWF]
P011	FLOW	10.000000	"ODDDATYPATTERN"	"ONEDAY"	""	""

[RDII]

[LOADINGS]

[CURVES]

[TIMESERIES]
RAINSERIES1	07/15/1977	06:30	0.000000
RAINSERIES1	06:35	0.840000
RAINSERIES1	06:40	0.040000
RAINSERIES1	06:45	0.020000
RAINSERIES1	06:50	0.000000
RAINSERIES1	07/15/1977	06:55	0.000000
RAINSERIES1	07:00	0.000000
RAINSERIES1	07:05	0.000000
RAINSERIES1	07:10	0.680000
RAINSERIES1	07:15	0.880000
RAINSERIES1	07/15/1977	07:20	2.020000
RAINSERIES1	07:25	2.130000
RAINSERIES1	07:30	0.630000
RAINSERIES1	07:35	2.330000
RAINSERIES1	07:40	0.310000
RAINSERIES1	07/15/1977	07:45	0.200000
RAINSERIES1	07:50	0.000000
RAINSERIES1	07:55	0.000000
RAINSERIES1	08:00	0.000000
RAINSERIES1	08:05	0.020000
RAINSERIES1	07/15/1977	08:10	0.000000
RAINSERIES1	08:15	0.000000
RAINSERIES1	08:20	0.000000
RAINSERIES1	08:25	0.000000
RAINSERIES1	08:30	0.220000
RAINSERIES1	07/15/1977	08:35	2.390000
RAINSERIES1	08:40	0.400000
RAINSERIES1	08:45	0.860000
RAINSERIES1	08:50	2.790000
RAINSERIES1	08:55	1.380000
RAINSERIES1	07/15/1977	09:00	1.080000
RAINSERIES1	09:05	0.640000
RAINSERIES1	09:10	0.020000
RAINSERIES1	09:15	0.150000
RAINSERIES1	09:20	0.000000


[PATTERNS]
; 
EVAPORATION	MONTHLY	5.000000	5.000000	2.000000	2.000000	3.000000
EVAPORATION	3.000000	2.000000	2.000000	2.000000	1.000000
EVAPORATION	1.000000	1.000000
; 
NORMALDAYS	DAILY	1.000000	1.000000	1.000000	0.000000	1.000000
NORMALDAYS	1.000000	1.000000
; 
ODDDATYPATTERN	HOURLY	0.000000	0.000000	0.000000	0.000000	0.000000
ODDDATYPATTERN	0.000000	0.000000	1.000000	1.000000	1.000000
ODDDATYPATTERN	1.000000	1.000000	0.000000	0.000000	0.000000
ODDDATYPATTERN	1.000000	1.000000	1.000000	1.000000	1.000000
ODDDATYPATTERN	0.000000	0.000000	0.000000	0.000000
; 
ONEDAY	DAILY	0.000000	0.000000	0.000000	1.000000	0.000000
ONEDAY	0.000000	0.000000

[REPORT]
;Report Option Set: BASE, Base Simulation Report
INPUT YES
CONTINUITY YES
FLOWSTATS YES
CONTROLS NO
SUBCATCHMENTS  ALL
NODES  ALL
LINKS  ALL

[COORDINATES]
OUTLET	-8.449000	111.653000
P001	147.531000	119.924000
P005	198.227000	200.920000
P009	281.276000	352.903000
P011	400.000000	400.000000


[POLYGONS]

CA-1	230.769000	402.206000
CA-1	162.277000	464.779000
CA-1	117.461000	514.668000
CA-1	-57.644000	368.074000
CA-1	60.088000	250.342000

CA-11	708.718000	347.243000
CA-11	590.986000	464.975000
CA-11	473.255000	347.243000
CA-11	590.986000	229.512000

CA-7	592.873000	223.788000
CA-7	475.142000	341.520000
CA-7	357.410000	223.788000
CA-7	475.142000	106.057000

CA-8	350.139000	516.163000
CA-8	366.979000	570.801000
CA-8	383.819000	625.439000
CA-8	232.408000	633.895000
CA-8	114.677000	516.163000
CA-8	232.408000	398.432000

[VERTICES]


[SYMBOLS]
GAGE1	242.100000	568.930000

[MAP]
DIMENSIONS	-95.962100	79.665100	747.036100	660.286900

