[TITLE]
Scenario Run :  BASE
Wet well floors flag changed to #D so that wet well floor levels
set to just below pump off levels.

[OPTIONS]
;Option and Files Scenario Set: BASE, Base Simulation Options
FLOW_UNITS	LPS
INFILTRATION	HORTON
FLOW_ROUTING	DYNWAVE
ALLOW_PONDING	NO
DRY_DAYS	0.000000
SKIP_STEADY_STATE 	NO
IGNORE_RAINFALL	YES
IGNORE_SNOWMELT	YES
IGNORE_GROUNDWATER	YES
IGNORE_QUALITY	YES
FORCE_MAIN_EQUATION	H-W
LINK_OFFSETS	DEPTH
MIN_SLOPE	0.000000
START_DATE	11/19/2010
START_TIME	00:00
END_DATE	12/19/2010
END_TIME	00:00
REPORT_START_DATE	11/19/2010
REPORT_START_TIME	00:00
SWEEP_START	01/01
SWEEP_END	12/31
WET_STEP	00:05:00
DRY_STEP	01:00:00
ROUTING_STEP	30
REPORT_STEP	00:15:00
INERTIAL_DAMPING	NONE
VARIABLE_STEP	0.750000
MINIMUM_STEP	0.000000
LENGTHENING_STEP	10
MIN_SURFAREA	0.000000
NORMAL_FLOW_LIMITED	BOTH
MAX_TRIALS	8
HEAD_TOLERANCE	0.001000

[FILES]

[RAINGAGES]
1	INTENSITY	1.000000	1.000000	TIMESERIES	RAIN		

[HYDROGRAPHS]

[EVAPORATION]
CONSTANT	0.000000
DRY_ONLY	NO

[TEMPERATURE]

[ADJUSTMENTS]

[SUBCATCHMENTS]
10-C	1	PN_037	0.000000	0.000000	13.369516	0.000000	0.000000
10-O	1	PN_037	0.000000	0.000000	13.943621	0.000000	0.000000
101	1	PN_046	0.000000	0.000000	20.099691	0.000000	0.000000
102	1	PN_039	0.000000	0.000000	18.510692	0.000000	0.000000
104	1	PN_042	0.000000	0.000000	15.220582	0.000000	0.000000
105	1	PN_057	0.000000	0.000000	17.227654	0.000000	0.000000
106	1	PN_027	0.000000	0.000000	15.195891	0.000000	0.000000
107	1	PN_040	0.000000	0.000000	18.033619	0.000000	0.000000
108	1	PN_009	0.000000	0.000000	7.586717	0.000000	0.000000
109	1	PN_053	0.000000	0.000000	8.005418	0.000000	0.000000
11	1	PN_036	0.000000	0.000000	12.912277	0.000000	0.000000
110	1	PN_054	0.000000	0.000000	8.446647	0.000000	0.000000
111	1	PN_055	0.000000	0.000000	7.920176	0.000000	0.000000
112	1	PN_043	0.000000	0.000000	19.675430	0.000000	0.000000
13	1	PN_066	0.000000	0.000000	10.696201	0.000000	0.000000
16	1	PN_020	0.000000	0.000000	20.802923	0.000000	0.000000
18	1	PN_063	0.000000	0.000000	17.985684	0.000000	0.000000
22	1	PN_031	0.000000	0.000000	22.501167	0.000000	0.000000
25+65+66	1	PN_030	0.000000	0.000000	31.230823	0.000000	0.000000
33	1	PN_032	0.000000	0.000000	24.485725	0.000000	0.000000
58+59	1	PN_035	0.000000	0.000000	25.260289	0.000000	0.000000
71	1	PN_041	0.000000	0.000000	26.406606	0.000000	0.000000
8	1	PN_037	0.000000	0.000000	21.124027	0.000000	0.000000
9	1	PN_037	0.000000	0.000000	20.122936	0.000000	0.000000
MUSEUM	1	PN_034	0.000000	0.000000	33.114082	0.000000	0.000000
PN_067A	1	PN_067	0.000000	0.000000	27.763298	0.000000	0.000000
SCHOOL	1	PN_029	0.000000	0.000000	44.547261	0.000000	0.000000

[SUBAREAS]
10-C	0.000000	0.000000	0.000000	0.000000	0.000000	OUTLET
10-O	0.000000	0.000000	0.000000	0.000000	0.000000	OUTLET
101	0.000000	0.000000	0.000000	0.000000	0.000000	OUTLET
102	0.000000	0.000000	0.000000	0.000000	0.000000	OUTLET
104	0.000000	0.000000	0.000000	0.000000	0.000000	OUTLET
105	0.000000	0.000000	0.000000	0.000000	0.000000	OUTLET
106	0.000000	0.000000	0.000000	0.000000	0.000000	OUTLET
107	0.000000	0.000000	0.000000	0.000000	0.000000	OUTLET
108	0.000000	0.000000	0.000000	0.000000	0.000000	OUTLET
109	0.000000	0.000000	0.000000	0.000000	0.000000	OUTLET
11	0.000000	0.000000	0.000000	0.000000	0.000000	OUTLET
110	0.000000	0.000000	0.000000	0.000000	0.000000	OUTLET
111	0.000000	0.000000	0.000000	0.000000	0.000000	OUTLET
112	0.000000	0.000000	0.000000	0.000000	0.000000	OUTLET
13	0.000000	0.000000	0.000000	0.000000	0.000000	OUTLET
16	0.000000	0.000000	0.000000	0.000000	0.000000	OUTLET
18	0.000000	0.000000	0.000000	0.000000	0.000000	OUTLET
22	0.000000	0.000000	0.000000	0.000000	0.000000	OUTLET
25+65+66	0.000000	0.000000	0.000000	0.000000	0.000000	OUTLET
33	0.000000	0.000000	0.000000	0.000000	0.000000	OUTLET
58+59	0.000000	0.000000	0.000000	0.000000	0.000000	OUTLET
71	0.000000	0.000000	0.000000	0.000000	0.000000	OUTLET
8	0.000000	0.000000	0.000000	0.000000	0.000000	OUTLET
9	0.000000	0.000000	0.000000	0.000000	0.000000	OUTLET
MUSEUM	0.000000	0.000000	0.000000	0.000000	0.000000	OUTLET
PN_067A	0.000000	0.000000	0.000000	0.000000	0.000000	OUTLET
SCHOOL	0.000000	0.000000	0.000000	0.000000	0.000000	OUTLET

[INFILTRATION]
10-C	0.000000	0.000000	0.000000	999.000000	0.000000
10-O	0.000000	0.000000	0.000000	999.000000	0.000000
101	0.000000	0.000000	0.000000	999.000000	0.000000
102	0.000000	0.000000	0.000000	999.000000	0.000000
104	0.000000	0.000000	0.000000	999.000000	0.000000
105	0.000000	0.000000	0.000000	999.000000	0.000000
106	0.000000	0.000000	0.000000	999.000000	0.000000
107	0.000000	0.000000	0.000000	999.000000	0.000000
108	0.000000	0.000000	0.000000	999.000000	0.000000
109	0.000000	0.000000	0.000000	999.000000	0.000000
11	0.000000	0.000000	0.000000	999.000000	0.000000
110	0.000000	0.000000	0.000000	999.000000	0.000000
111	0.000000	0.000000	0.000000	999.000000	0.000000
112	0.000000	0.000000	0.000000	999.000000	0.000000
13	0.000000	0.000000	0.000000	999.000000	0.000000
16	0.000000	0.000000	0.000000	999.000000	0.000000
18	0.000000	0.000000	0.000000	999.000000	0.000000
22	0.000000	0.000000	0.000000	999.000000	0.000000
25+65+66	0.000000	0.000000	0.000000	999.000000	0.000000
33	0.000000	0.000000	0.000000	999.000000	0.000000
58+59	0.000000	0.000000	0.000000	999.000000	0.000000
71	0.000000	0.000000	0.000000	999.000000	0.000000
8	0.000000	0.000000	0.000000	999.000000	0.000000
9	0.000000	0.000000	0.000000	999.000000	0.000000
MUSEUM	0.000000	0.000000	0.000000	999.000000	0.000000
PN_067A	0.000000	0.000000	0.000000	999.000000	0.000000
SCHOOL	0.000000	0.000000	0.000000	999.000000	0.000000

[AQUIFERS]

[GROUNDWATER]

[GWF]

[SNOWPACKS]

[JUNCTIONS]
PN_001	25.900000	0.618000	0.000000	999.000000	0.000000
PN_002	18.000000	8.533142	0.000000	999.000000	0.000000
PN_003	24.885390	0.600000	0.000000	999.000000	0.000000
PN_004	19.598641	0.600000	0.000000	999.000000	0.000000
PN_005	18.627516	0.600000	0.000000	999.000000	0.000000
PN_006	15.958372	0.600000	0.000000	999.000000	0.000000
PN_007	19.466690	0.600000	0.000000	999.000000	0.000000
PN_008	18.170000	0.599981	0.000000	999.000000	0.000000
PN_009	17.276000	1.755027	0.000000	0.000000	180.824643
PN_010	18.800000	5.200000	0.000000	999.000000	0.000000
PN_011	21.199999	0.600000	0.000000	999.000000	0.000000
PN_012	20.492000	0.600033	0.000000	999.000000	0.000000
PN_013	18.640450	0.600000	0.000000	999.000000	0.000000
PN_014	19.111315	0.600000	0.000000	999.000000	0.000000
PN_016	2.948802	0.600000	0.000000	999.000000	0.000000
PN_017	2.650000	0.600000	0.000000	999.000000	0.000000
PN_018	3.150000	0.600000	0.000000	999.000000	0.000000
PN_019	3.267818	0.600000	0.000000	999.000000	0.000000
PN_020	1.995000	1.755000	0.000000	0.000000	1359.560699
PN_021	2.821042	0.600000	0.000000	999.000000	0.000000
PN_022	2.044395	0.600000	0.000000	999.000000	0.000000
PN_023	5.471305	0.600000	0.000000	999.000000	0.000000
PN_024	4.448683	0.600000	0.000000	999.000000	0.000000
PN_025	4.526453	0.600000	0.000000	999.000000	0.000000
PN_026	8.622255	0.600000	0.000000	999.000000	0.000000
PN_027	16.430000	1.755000	0.000000	0.000000	725.441196
PN_028	20.926000	0.600428	0.000000	999.000000	0.000000
PN_029	1.995000	1.755000	0.000000	0.000000	6234.360097
PN_030	2.132000	1.755256	0.000000	0.000000	3064.197378
PN_031	1.923000	1.755048	0.000000	0.000000	1590.596314
PN_032	2.459000	1.754551	0.000000	0.000000	1883.544203
PN_033	3.150000	0.600000	0.000000	999.000000	0.000000
PN_034	1.260000	1.754992	0.000000	0.000000	3444.889564
PN_035	0.791000	1.755408	0.000000	0.000000	2004.594350
PN_036	2.766000	1.754673	0.000000	0.000000	523.787997
PN_037	3.732000	1.440741	0.000000	0.000000	3846.332381
PN_039	19.404000	1.754886	0.000000	0.000000	1076.453274
PN_040	9.909000	1.755000	0.000000	0.000000	1021.681784
PN_041	22.273000	1.755034	0.000000	0.000000	2190.660327
PN_042	23.790000	1.755416	0.000000	0.000000	727.800565
PN_043	18.258000	1.754728	0.000000	0.000000	1216.181319
PN_044	3.400000	0.600000	0.000000	999.000000	0.000000
PN_045	3.079574	0.600000	0.000000	999.000000	0.000000
PN_046	1.737000	1.755152	0.000000	0.000000	1269.195800
PN_047	3.965944	0.600000	0.000000	999.000000	0.000000
PN_048	11.976000	0.600258	0.000000	999.000000	0.000000
PN_049	2.581000	0.600000	0.000000	999.000000	0.000000
PN_050	19.000000	4.880363	0.000000	999.000000	0.000000
PN_051	2.795004	0.600000	0.000000	999.000000	0.000000
PN_052	2.413867	0.600000	0.000000	999.000000	0.000000
PN_053	19.180000	1.754738	0.000000	0.000000	201.334369
PN_054	19.925000	1.754598	0.000000	0.000000	224.139593
PN_055	19.671000	1.755258	0.000000	0.000000	197.069547
PN_056	3.202616	0.600000	0.000000	999.000000	0.000000
PN_057	14.690000	1.755000	0.000000	0.000000	932.399731
PN_058	3.492204	0.257796	0.000000	999.000000	0.000000
PN_059	2.900000	0.600000	0.000000	999.000000	0.000000
PN_060	18.811680	0.988319	0.000000	999.000000	0.000000
PN_061	2.986535	0.600000	0.000000	999.000000	0.000000
PN_062	3.356413	0.600000	0.000000	999.000000	0.000000
PN_063	1.971000	1.754576	0.000000	0.000000	1016.257513
PN_064	3.145961	0.600000	0.000000	999.000000	0.000000
PN_065	4.046006	0.600000	0.000000	999.000000	0.000000
PN_066	2.788000	1.755069	0.000000	0.000000	359.425592
PN_067	1.995000	1.755000	0.000000	0.000000	2421.541792
PN_068	11.615382	0.741806	0.000000	999.000000	0.000000
PN_070	3.150000	0.600000	0.000000	999.000000	0.000000
PN_071	21.027000	0.599822	0.000000	999.000000	0.000000
PN_072	4.172779	0.600000	0.000000	999.000000	0.000000
PN_073	4.000000	0.600000	0.000000	999.000000	0.000000
PN_074	4.104739	0.600000	0.000000	999.000000	0.000000

[OUTFALLS]
PN_015	22.561690	FREE	NO

[DIVIDERS]

[STORAGE]

[CONDUITS]
PN_002.1	PN_002	PN_050	60.344068	0.011036	0.000000	0.000000	0.000000	0.000000
; ks value of 0.600000 mm converted using n = 0.038 * (ks /
; 1000.0)**(1./6.)
PN_003.1	PN_003	PN_004	72.328498	0.011036	0.000000	0.000000	0.000000	0.000000
; ks value of 0.600000 mm converted using n = 0.038 * (ks /
; 1000.0)**(1./6.)
PN_004.1	PN_004	PN_005	42.914272	0.011036	0.000000	0.000000	0.000000	0.000000
; ks value of 0.600000 mm converted using n = 0.038 * (ks /
; 1000.0)**(1./6.)
PN_005.1	PN_005	PN_007	184.802173	0.011036	0.000000	0.000000	0.000000	0.000000
; ks value of 0.600000 mm converted using n = 0.038 * (ks /
; 1000.0)**(1./6.)
PN_006.1	PN_006	PN_005	4.929451	0.011036	0.000000	0.000000	0.000000	0.000000
; ks value of 0.600000 mm converted using n = 0.038 * (ks /
; 1000.0)**(1./6.)
PN_007.1	PN_007	PN_011	169.122807	0.011036	0.000000	0.000000	0.000000	0.000000
; ks value of 0.600000 mm converted using n = 0.038 * (ks /
; 1000.0)**(1./6.)
PN_008.1	PN_008	PN_007	3.260799	0.011036	0.000000	0.000310	0.000000	0.000000
; ks value of 0.600000 mm converted using n = 0.038 * (ks /
; 1000.0)**(1./6.)
PN_010.1	PN_010	PN_050	5.908460	0.011036	0.000000	0.000000	0.000000	0.000000
; ks value of 0.600000 mm converted using n = 0.038 * (ks /
; 1000.0)**(1./6.)
PN_011.1	PN_011	PN_013	55.743276	0.011036	0.000000	0.000000	0.000000	0.000000
; ks value of 0.600000 mm converted using n = 0.038 * (ks /
; 1000.0)**(1./6.)
PN_012.1	PN_012	PN_011	3.072050	0.011036	0.000000	0.000001	0.000000	0.000000
; ks value of 0.600000 mm converted using n = 0.038 * (ks /
; 1000.0)**(1./6.)
PN_013.1	PN_013	PN_060	25.791804	0.011036	0.000000	0.074471	0.000000	0.000000
; ks value of 0.600000 mm converted using n = 0.038 * (ks /
; 1000.0)**(1./6.)
PN_014.1	PN_014	PN_060	44.501088	0.011036	0.000000	0.000000	0.000000	0.000000
; ks value of 0.600000 mm converted using n = 0.038 * (ks /
; 1000.0)**(1./6.)
PN_016.1	PN_016	PN_059	145.898554	0.011036	0.000000	0.000000	0.000000	0.000000
; ks value of 0.600000 mm converted using n = 0.038 * (ks /
; 1000.0)**(1./6.)
PN_017.1	PN_017	PN_061	120.403750	0.011036	0.000000	0.000000	0.000000	0.000000
; ks value of 0.600000 mm converted using n = 0.038 * (ks /
; 1000.0)**(1./6.)
PN_018.1	PN_018	PN_017	58.988633	0.011036	0.000000	0.000000	0.000000	0.000000
; ks value of 0.600000 mm converted using n = 0.038 * (ks /
; 1000.0)**(1./6.)
PN_019.1	PN_019	PN_051	87.322133	0.011036	0.000000	0.000000	0.000000	0.000000
; ks value of 0.600000 mm converted using n = 0.038 * (ks /
; 1000.0)**(1./6.)
PN_021.1	PN_021	PN_058	27.471473	0.011036	0.000000	0.000000	0.000000	0.000000
; ks value of 0.600000 mm converted using n = 0.038 * (ks /
; 1000.0)**(1./6.)
PN_022.1	PN_022	PN_021	48.885791	0.011036	0.000000	0.000000	0.000000	0.000000
; ks value of 0.600000 mm converted using n = 0.038 * (ks /
; 1000.0)**(1./6.)
PN_023.1	PN_023	PN_026	70.675934	0.011036	0.000000	0.000000	0.000000	0.000000
; ks value of 0.600000 mm converted using n = 0.038 * (ks /
; 1000.0)**(1./6.)
PN_024.1	PN_024	PN_065	89.002812	0.011036	0.000000	0.061411	0.000000	0.000000
; ks value of 0.600000 mm converted using n = 0.038 * (ks /
; 1000.0)**(1./6.)
PN_025.1	PN_025	PN_068	102.899164	0.011036	0.000000	0.141618	0.000000	0.000000
; ks value of 0.600000 mm converted using n = 0.038 * (ks /
; 1000.0)**(1./6.)
PN_026.1	PN_026	PN_068	71.255504	0.011036	0.000000	0.000000	0.000000	0.000000
; ks value of 0.600000 mm converted using n = 0.038 * (ks /
; 1000.0)**(1./6.)
PN_028.1	PN_028	PN_001	78.855863	0.011036	0.000000	0.000000	0.000000	0.000000
; ks value of 0.600000 mm converted using n = 0.038 * (ks /
; 1000.0)**(1./6.)
PN_033.1	PN_033	PN_019	3.379096	0.011036	0.000000	0.000000	0.000000	0.000000
; ks value of 0.600000 mm converted using n = 0.038 * (ks /
; 1000.0)**(1./6.)
PN_044.1	PN_044	PN_019	40.548197	0.011036	0.000000	0.000000	0.000000	0.000000
; ks value of 0.600000 mm converted using n = 0.038 * (ks /
; 1000.0)**(1./6.)
PN_045.2	PN_045	PN_044	60.086306	0.011036	0.000000	0.000000	0.000000	0.000000
; ks value of 0.600000 mm converted using n = 0.038 * (ks /
; 1000.0)**(1./6.)
PN_047.1	PN_047	PN_023	28.001190	0.011036	0.000000	0.000000	0.000000	0.000000
; ks value of 0.600000 mm converted using n = 0.038 * (ks /
; 1000.0)**(1./6.)
PN_048.1	PN_048	PN_028	221.087947	0.011036	0.000000	0.000000	0.000000	0.000000
; ks value of 0.600000 mm converted using n = 0.038 * (ks /
; 1000.0)**(1./6.)
PN_049.1	PN_049	PN_017	66.407591	0.011036	0.000000	0.000000	0.000000	0.000000
; ks value of 0.600000 mm converted using n = 0.038 * (ks /
; 1000.0)**(1./6.)
PN_050.1	PN_050	PN_004	94.522441	0.011036	0.000000	0.000359	0.000000	0.000000
; ks value of 0.600000 mm converted using n = 0.038 * (ks /
; 1000.0)**(1./6.)
PN_051.1	PN_051	PN_021	47.944433	0.011036	0.000000	0.000000	0.000000	0.000000
; ks value of 0.600000 mm converted using n = 0.038 * (ks /
; 1000.0)**(1./6.)
PN_052.1	PN_052	PN_051	29.192447	0.011036	0.000000	0.000000	0.000000	0.000000
; ks value of 0.600000 mm converted using n = 0.038 * (ks /
; 1000.0)**(1./6.)
PN_056.1	PN_056	PN_061	40.385336	0.011036	0.000000	0.000000	0.000000	0.000000
; ks value of 0.600000 mm converted using n = 0.038 * (ks /
; 1000.0)**(1./6.)
PN_058.1	PN_058	PN_023	70.724987	0.011036	0.000000	0.000000	0.000000	0.000000
; ks value of 0.600000 mm converted using n = 0.038 * (ks /
; 1000.0)**(1./6.)
PN_059.1	PN_059	PN_049	58.398761	0.011036	0.000000	0.000000	0.000000	0.000000
; ks value of 0.600000 mm converted using n = 0.038 * (ks /
; 1000.0)**(1./6.)
PN_060.1	PN_060	PN_015	382.756305	0.011036	0.074471	0.000000	0.000000	0.000000
; ks value of 0.600000 mm converted using n = 0.038 * (ks /
; 1000.0)**(1./6.)
PN_061.1	PN_061	PN_045	27.811298	0.011036	0.000000	0.000000	0.000000	0.000000
; ks value of 0.600000 mm converted using n = 0.038 * (ks /
; 1000.0)**(1./6.)
PN_062.1	PN_062	PN_045	3.981651	0.011036	0.000000	0.000000	0.000000	0.000000
; ks value of 0.600000 mm converted using n = 0.038 * (ks /
; 1000.0)**(1./6.)
PN_064.3	PN_064	PN_044	6.715167	0.011036	0.000000	0.000000	0.000000	0.000000
; ks value of 0.600000 mm converted using n = 0.038 * (ks /
; 1000.0)**(1./6.)
PN_065.1	PN_065	PN_047	37.093987	0.011036	0.061411	0.000000	0.000000	0.000000
; ks value of 0.600000 mm converted using n = 0.038 * (ks /
; 1000.0)**(1./6.)
PN_068.1	PN_068	PN_048	7.688558	0.011036	0.000000	0.000258	0.000000	0.000000
; ks value of 0.600000 mm converted using n = 0.038 * (ks /
; 1000.0)**(1./6.)
PN_070.1	PN_070	PN_059	23.595127	0.011036	0.000000	0.000000	0.000000	0.000000
; ks value of 0.600000 mm converted using n = 0.038 * (ks /
; 1000.0)**(1./6.)
PN_071.1	PN_071	PN_028	25.527553	0.011036	0.000000	0.000000	0.000000	0.000000
; ks value of 0.600000 mm converted using n = 0.038 * (ks /
; 1000.0)**(1./6.)
PN_072.1	PN_072	PN_047	3.203371	0.011036	0.000000	0.000000	0.000000	0.000000
; ks value of 0.600000 mm converted using n = 0.038 * (ks /
; 1000.0)**(1./6.)
PN_073.1	PN_073	PN_065	8.142564	0.011036	0.000000	0.000000	0.000000	0.000000
; ks value of 0.600000 mm converted using n = 0.038 * (ks /
; 1000.0)**(1./6.)
PN_074.1	PN_074	PN_024	5.819497	0.011036	0.000000	0.000000	0.000000	0.000000

[PUMPS]
PN_009.1	PN_009	PN_012	PN_009.1	ON	0.000000	0.000000
PN_020.1	PN_020	PN_033	PN_020.1	ON	0.000000	0.000000
PN_027.1	PN_027	PN_008	PN_027.1	ON	0.000000	0.000000
PN_029.1	PN_029	PN_018	PN_029.1	ON	0.000000	0.000000
PN_030.1	PN_030	PN_056	PN_030.1	ON	0.000000	0.000000
PN_031.1	PN_031	PN_062	PN_031.1	ON	0.000000	0.000000
PN_032.1	PN_032	PN_074	PN_032.1	ON	0.000000	0.000000
PN_034.1	PN_034	PN_052	PN_034.1	ON	0.000000	0.000000
PN_035.1	PN_035	PN_022	PN_035.1	ON	0.000000	0.000000
PN_036.1	PN_036	PN_072	PN_036.1	ON	0.000000	0.000000
PN_037.1	PN_037	PN_025	PN_037.1	ON	0.000000	0.000000
PN_039.1	PN_039	PN_071	PN_039.1	ON	0.000000	0.000000
PN_040.1	PN_040	PN_008	PN_040.1	ON	0.000000	0.000000
PN_041.1	PN_041	PN_010	PN_041.1	ON	0.000000	0.000000
PN_042.1	PN_042	PN_003	PN_042.1	ON	0.000000	0.000000
PN_043.1	PN_043	PN_014	PN_043.1	ON	0.000000	0.000000
PN_046.1	PN_046	PN_016	PN_046.1	ON	0.000000	0.000000
PN_053.1	PN_053	PN_012	PN_053.1	ON	0.000000	0.000000
PN_054.1	PN_054	PN_012	PN_054.1	ON	0.000000	0.000000
PN_055.1	PN_055	PN_012	PN_055.1	ON	0.000000	0.000000
PN_057.1	PN_057	PN_006	PN_057.1	ON	0.000000	0.000000
PN_063.2	PN_063	PN_064	PN_063.2	ON	0.000000	0.000000
PN_066.2	PN_066	PN_073	PN_066.2	ON	0.000000	0.000000
PN_067.1	PN_067	PN_070	PN_067.1	ON	0.000000	0.000000

[ORIFICES]

[WEIRS]
PN_001.1	PN_001	PN_002	TRANSVERSE	0.100000	2.661824	NO	0	0.000000	YES

[XSECTIONS]
PN_002.1	CIRCULAR	0.048000	0.000000	0.000000	0.000000	1	0
PN_003.1	CIRCULAR	0.031000	0.000000	0.000000	0.000000	1	0
PN_004.1	CIRCULAR	0.048000	0.000000	0.000000	0.000000	1	0
PN_005.1	CIRCULAR	0.048000	0.000000	0.000000	0.000000	1	0
PN_006.1	CIRCULAR	0.031000	0.000000	0.000000	0.000000	1	0
PN_007.1	CIRCULAR	0.048000	0.000000	0.000000	0.000000	1	0
PN_008.1	CIRCULAR	0.031000	0.000000	0.000000	0.000000	1	0
PN_010.1	CIRCULAR	0.031000	0.000000	0.000000	0.000000	1	0
PN_011.1	CIRCULAR	0.048000	0.000000	0.000000	0.000000	1	0
PN_012.1	CIRCULAR	0.031000	0.000000	0.000000	0.000000	1	0
PN_013.1	CIRCULAR	0.048000	0.000000	0.000000	0.000000	1	0
PN_014.1	CIRCULAR	0.031000	0.000000	0.000000	0.000000	1	0
PN_016.1	CIRCULAR	0.031000	0.000000	0.000000	0.000000	1	0
PN_017.1	CIRCULAR	0.038000	0.000000	0.000000	0.000000	1	0
PN_018.1	CIRCULAR	0.031000	0.000000	0.000000	0.000000	1	0
PN_019.1	CIRCULAR	0.038000	0.000000	0.000000	0.000000	1	0
PN_021.1	CIRCULAR	0.038000	0.000000	0.000000	0.000000	1	0
PN_022.1	CIRCULAR	0.031000	0.000000	0.000000	0.000000	1	0
PN_023.1	CIRCULAR	0.048000	0.000000	0.000000	0.000000	1	0
PN_024.1	CIRCULAR	0.038000	0.000000	0.000000	0.000000	1	0
PN_025.1	CIRCULAR	0.031000	0.000000	0.000000	0.000000	1	0
PN_026.1	CIRCULAR	0.048000	0.000000	0.000000	0.000000	1	0
PN_028.1	CIRCULAR	0.048000	0.000000	0.000000	0.000000	1	0
PN_033.1	CIRCULAR	0.031000	0.000000	0.000000	0.000000	1	0
PN_044.1	CIRCULAR	0.038000	0.000000	0.000000	0.000000	1	0
PN_045.2	CIRCULAR	0.038000	0.000000	0.000000	0.000000	1	0
PN_047.1	CIRCULAR	0.038000	0.000000	0.000000	0.000000	1	0
PN_048.1	CIRCULAR	0.048000	0.000000	0.000000	0.000000	1	0
PN_049.1	CIRCULAR	0.038000	0.000000	0.000000	0.000000	1	0
PN_050.1	CIRCULAR	0.048000	0.000000	0.000000	0.000000	1	0
PN_051.1	CIRCULAR	0.038000	0.000000	0.000000	0.000000	1	0
PN_052.1	CIRCULAR	0.031000	0.000000	0.000000	0.000000	1	0
PN_056.1	CIRCULAR	0.031000	0.000000	0.000000	0.000000	1	0
PN_058.1	CIRCULAR	0.038000	0.000000	0.000000	0.000000	1	0
PN_059.1	CIRCULAR	0.038000	0.000000	0.000000	0.000000	1	0
PN_060.1	CIRCULAR	0.048000	0.000000	0.000000	0.000000	1	0
PN_061.1	CIRCULAR	0.038000	0.000000	0.000000	0.000000	1	0
PN_062.1	CIRCULAR	0.031000	0.000000	0.000000	0.000000	1	0
PN_064.3	CIRCULAR	0.031000	0.000000	0.000000	0.000000	1	0
PN_065.1	CIRCULAR	0.038000	0.000000	0.000000	0.000000	1	0
PN_068.1	CIRCULAR	0.048000	0.000000	0.000000	0.000000	1	0
PN_070.1	CIRCULAR	0.031000	0.000000	0.000000	0.000000	1	0
PN_071.1	CIRCULAR	0.031000	0.000000	0.000000	0.000000	1	0
PN_072.1	CIRCULAR	0.031000	0.000000	0.000000	0.000000	1	0
PN_073.1	CIRCULAR	0.031000	0.000000	0.000000	0.000000	1	0
PN_074.1	CIRCULAR	0.031000	0.000000	0.000000	0.000000	1	0
PN_001.1	RECT_OPEN	1.000000	1.000000	0.000000	0.000000

[TRANSECTS]

[LOSSES]
PN_002.1	1.000000	1.000000	0.000000	NO	0.000000
PN_003.1	1.000000	1.000000	0.000000	NO	0.000000
PN_004.1	1.000000	1.000000	0.000000	NO	0.000000
PN_005.1	1.000000	1.000000	0.000000	NO	0.000000
PN_006.1	1.000000	1.000000	0.000000	NO	0.000000
PN_007.1	1.000000	1.000000	0.000000	NO	0.000000
PN_008.1	1.000000	1.000000	0.000000	NO	0.000000
PN_010.1	1.000000	1.000000	0.000000	NO	0.000000
PN_011.1	1.000000	1.000000	0.000000	NO	0.000000
PN_012.1	1.000000	1.000000	0.000000	NO	0.000000
PN_013.1	1.000000	1.000000	0.000000	NO	0.000000
PN_014.1	1.000000	1.000000	0.000000	NO	0.000000
PN_016.1	1.000000	1.000000	0.000000	NO	0.000000
PN_017.1	1.000000	1.000000	0.000000	NO	0.000000
PN_018.1	1.000000	1.000000	0.000000	NO	0.000000
PN_019.1	1.000000	1.000000	0.000000	NO	0.000000
PN_021.1	1.000000	1.000000	0.000000	NO	0.000000
PN_022.1	1.000000	1.000000	0.000000	NO	0.000000
PN_023.1	1.000000	1.000000	0.000000	NO	0.000000
PN_024.1	1.000000	1.000000	0.000000	NO	0.000000
PN_025.1	1.000000	1.000000	0.000000	NO	0.000000
PN_026.1	1.000000	1.000000	0.000000	NO	0.000000
PN_028.1	1.000000	1.000000	0.000000	NO	0.000000
PN_033.1	1.000000	1.000000	0.000000	NO	0.000000
PN_044.1	1.000000	1.000000	0.000000	NO	0.000000
PN_045.2	1.000000	1.000000	0.000000	NO	0.000000
PN_047.1	1.000000	1.000000	0.000000	NO	0.000000
PN_048.1	1.000000	1.000000	0.000000	NO	0.000000
PN_049.1	1.000000	1.000000	0.000000	NO	0.000000
PN_050.1	1.000000	1.000000	0.000000	NO	0.000000
PN_051.1	1.000000	1.000000	0.000000	NO	0.000000
PN_052.1	1.000000	1.000000	0.000000	NO	0.000000
PN_056.1	1.000000	1.000000	0.000000	NO	0.000000
PN_058.1	1.000000	1.000000	0.000000	NO	0.000000
PN_059.1	1.000000	1.000000	0.000000	NO	0.000000
PN_060.1	1.000000	1.000000	0.000000	NO	0.000000
PN_061.1	1.000000	1.000000	0.000000	NO	0.000000
PN_062.1	1.000000	1.000000	0.000000	NO	0.000000
PN_064.3	1.000000	1.000000	0.000000	NO	0.000000
PN_065.1	1.000000	1.000000	0.000000	NO	0.000000
PN_068.1	1.000000	1.000000	0.000000	NO	0.000000
PN_070.1	1.000000	1.000000	0.000000	NO	0.000000
PN_071.1	1.000000	1.000000	0.000000	NO	0.000000
PN_072.1	1.000000	1.000000	0.000000	NO	0.000000
PN_073.1	1.000000	1.000000	0.000000	NO	0.000000
PN_074.1	1.000000	1.000000	0.000000	NO	0.000000

[CONTROLS]
RULE PN_009.1_ON
IF NODE PN_009 HEAD >= 17.478000
THEN PUMP PN_009.1 STATUS = ON


RULE PN_009.1_OFF
IF NODE PN_009 HEAD <= 17.376000
THEN PUMP PN_009.1 STATUS = OFF


RULE PN_020.1_ON
IF NODE PN_020 HEAD >= 2.197000
THEN PUMP PN_020.1 STATUS = ON


RULE PN_020.1_OFF
IF NODE PN_020 HEAD <= 2.095000
THEN PUMP PN_020.1 STATUS = OFF


RULE PN_027.1_ON
IF NODE PN_027 HEAD >= 16.632000
THEN PUMP PN_027.1 STATUS = ON


RULE PN_027.1_OFF
IF NODE PN_027 HEAD <= 16.530000
THEN PUMP PN_027.1 STATUS = OFF


RULE PN_029.1_ON
IF NODE PN_029 HEAD >= 2.197000
THEN PUMP PN_029.1 STATUS = ON


RULE PN_029.1_OFF
IF NODE PN_029 HEAD <= 2.095000
THEN PUMP PN_029.1 STATUS = OFF


RULE PN_030.1_ON
IF NODE PN_030 HEAD >= 2.334000
THEN PUMP PN_030.1 STATUS = ON


RULE PN_030.1_OFF
IF NODE PN_030 HEAD <= 2.232000
THEN PUMP PN_030.1 STATUS = OFF


RULE PN_031.1_ON
IF NODE PN_031 HEAD >= 2.125000
THEN PUMP PN_031.1 STATUS = ON


RULE PN_031.1_OFF
IF NODE PN_031 HEAD <= 2.023000
THEN PUMP PN_031.1 STATUS = OFF


RULE PN_032.1_ON
IF NODE PN_032 HEAD >= 2.661000
THEN PUMP PN_032.1 STATUS = ON


RULE PN_032.1_OFF
IF NODE PN_032 HEAD <= 2.559000
THEN PUMP PN_032.1 STATUS = OFF


RULE PN_034.1_ON
IF NODE PN_034 HEAD >= 1.462000
THEN PUMP PN_034.1 STATUS = ON


RULE PN_034.1_OFF
IF NODE PN_034 HEAD <= 1.360000
THEN PUMP PN_034.1 STATUS = OFF


RULE PN_035.1_ON
IF NODE PN_035 HEAD >= 0.993000
THEN PUMP PN_035.1 STATUS = ON


RULE PN_035.1_OFF
IF NODE PN_035 HEAD <= 0.891000
THEN PUMP PN_035.1 STATUS = OFF


RULE PN_036.1_ON
IF NODE PN_036 HEAD >= 2.968000
THEN PUMP PN_036.1 STATUS = ON


RULE PN_036.1_OFF
IF NODE PN_036 HEAD <= 2.866000
THEN PUMP PN_036.1 STATUS = OFF


RULE PN_037.1_ON
IF NODE PN_037 HEAD >= 3.934000
THEN PUMP PN_037.1 STATUS = ON


RULE PN_037.1_OFF
IF NODE PN_037 HEAD <= 3.832000
THEN PUMP PN_037.1 STATUS = OFF


RULE PN_039.1_ON
IF NODE PN_039 HEAD >= 19.606000
THEN PUMP PN_039.1 STATUS = ON


RULE PN_039.1_OFF
IF NODE PN_039 HEAD <= 19.504000
THEN PUMP PN_039.1 STATUS = OFF


RULE PN_040.1_ON
IF NODE PN_040 HEAD >= 10.111000
THEN PUMP PN_040.1 STATUS = ON


RULE PN_040.1_OFF
IF NODE PN_040 HEAD <= 10.009000
THEN PUMP PN_040.1 STATUS = OFF


RULE PN_041.1_ON
IF NODE PN_041 HEAD >= 22.475000
THEN PUMP PN_041.1 STATUS = ON


RULE PN_041.1_OFF
IF NODE PN_041 HEAD <= 22.373000
THEN PUMP PN_041.1 STATUS = OFF


RULE PN_042.1_ON
IF NODE PN_042 HEAD >= 23.992000
THEN PUMP PN_042.1 STATUS = ON


RULE PN_042.1_OFF
IF NODE PN_042 HEAD <= 23.890000
THEN PUMP PN_042.1 STATUS = OFF


RULE PN_043.1_ON
IF NODE PN_043 HEAD >= 18.460000
THEN PUMP PN_043.1 STATUS = ON


RULE PN_043.1_OFF
IF NODE PN_043 HEAD <= 18.358000
THEN PUMP PN_043.1 STATUS = OFF


RULE PN_046.1_ON
IF NODE PN_046 HEAD >= 1.939000
THEN PUMP PN_046.1 STATUS = ON


RULE PN_046.1_OFF
IF NODE PN_046 HEAD <= 1.837000
THEN PUMP PN_046.1 STATUS = OFF


RULE PN_053.1_ON
IF NODE PN_053 HEAD >= 19.382000
THEN PUMP PN_053.1 STATUS = ON


RULE PN_053.1_OFF
IF NODE PN_053 HEAD <= 19.280000
THEN PUMP PN_053.1 STATUS = OFF


RULE PN_054.1_ON
IF NODE PN_054 HEAD >= 20.127000
THEN PUMP PN_054.1 STATUS = ON


RULE PN_054.1_OFF
IF NODE PN_054 HEAD <= 20.025000
THEN PUMP PN_054.1 STATUS = OFF


RULE PN_055.1_ON
IF NODE PN_055 HEAD >= 19.873000
THEN PUMP PN_055.1 STATUS = ON


RULE PN_055.1_OFF
IF NODE PN_055 HEAD <= 19.771000
THEN PUMP PN_055.1 STATUS = OFF


RULE PN_057.1_ON
IF NODE PN_057 HEAD >= 14.892000
THEN PUMP PN_057.1 STATUS = ON


RULE PN_057.1_OFF
IF NODE PN_057 HEAD <= 14.790000
THEN PUMP PN_057.1 STATUS = OFF


RULE PN_063.2_ON
IF NODE PN_063 HEAD >= 2.173000
THEN PUMP PN_063.2 STATUS = ON


RULE PN_063.2_OFF
IF NODE PN_063 HEAD <= 2.071000
THEN PUMP PN_063.2 STATUS = OFF


RULE PN_066.2_ON
IF NODE PN_066 HEAD >= 2.990000
THEN PUMP PN_066.2 STATUS = ON


RULE PN_066.2_OFF
IF NODE PN_066 HEAD <= 2.888000
THEN PUMP PN_066.2 STATUS = OFF


RULE PN_067.1_ON
IF NODE PN_067 HEAD >= 2.197000
THEN PUMP PN_067.1 STATUS = ON


RULE PN_067.1_OFF
IF NODE PN_067 HEAD <= 2.095000
THEN PUMP PN_067.1 STATUS = OFF



[POLLUTANTS]

[LANDUSES]

[COVERAGES]

[BUILDUP]

[WASHOFF]

[TREATMENT]

[INFLOWS]

[DWF]
PN_009	FLOW	3.000000	"PEAKDAYV2"	""	""	""
PN_020	FLOW	60.000000	"PEAKDAYV2"	""	""	""
PN_027	FLOW	3.000000	"PEAKDAYV2"	""	""	""
PN_029	FLOW	148.000000	"PEAKDAYV2"	""	""	""
PN_030	FLOW	15.000000	"PEAKDAYV2"	""	""	""
PN_031	FLOW	56.000000	"PEAKDAYV2"	""	""	""
PN_032	FLOW	1.000000	"PEAKDAYV2"	""	""	""
PN_034	FLOW	110.000000	"PEAKDAYV2"	""	""	""
PN_035	FLOW	111.000000	"PEAKDAYV2"	""	""	""
PN_036	FLOW	2000.000000	"PEAKDAYV2"	""	""	""
PN_037	FLOW	12.000000	"PEAKDAYV2"	""	""	""
PN_039	FLOW	3.000000	"PEAKDAYV2"	""	""	""
PN_040	FLOW	3.000000	"PEAKDAYV2"	""	""	""
PN_041	FLOW	150.000000	"PEAKDAYV2"	""	""	""
PN_042	FLOW	3.000000	"PEAKDAYV2"	""	""	""
PN_043	FLOW	300.000000	"PEAKDAYV2"	""	""	""
PN_046	FLOW	100.000000	"PEAKDAYV2"	""	""	""
PN_053	FLOW	3.000000	"PEAKDAYV2"	""	""	""
PN_054	FLOW	3.000000	"PEAKDAYV2"	""	""	""
PN_055	FLOW	3.000000	"PEAKDAYV2"	""	""	""
PN_057	FLOW	3.000000	"PEAKDAYV2"	""	""	""
PN_063	FLOW	30.000000	"PEAKDAYV2"	""	""	""
PN_066	FLOW	5.000000	"PEAKDAYV2"	""	""	""
PN_067	FLOW	15.000000	"PEAKDAYV2"	""	""	""

[RDII]

[LOADINGS]

[CURVES]
; 
PN_009.1	PUMP3	0.000000	1.750000
PN_009.1	30.000000	1.650000
PN_009.1	35.000000	1.600000
PN_009.1	40.000000	1.500000
PN_009.1	45.000000	1.250000
PN_009.1	48.000000	1.000000
PN_009.1	50.000000	0.850000
PN_009.1	52.000000	0.750000
PN_009.1	55.000000	0.500000
PN_009.1	58.000000	0.250000
PN_009.1	60.000000	0.012500
PN_009.1	61.000000	0.000000
; 
PN_020.1	PUMP3	0.000000	1.750000
PN_020.1	30.000000	1.650000
PN_020.1	35.000000	1.600000
PN_020.1	40.000000	1.500000
PN_020.1	45.000000	1.250000
PN_020.1	48.000000	1.000000
PN_020.1	50.000000	0.850000
PN_020.1	52.000000	0.750000
PN_020.1	55.000000	0.500000
PN_020.1	58.000000	0.250000
PN_020.1	60.000000	0.012500
PN_020.1	61.000000	0.000000
; 
PN_027.1	PUMP3	0.000000	1.750000
PN_027.1	30.000000	1.650000
PN_027.1	35.000000	1.600000
PN_027.1	40.000000	1.500000
PN_027.1	45.000000	1.250000
PN_027.1	48.000000	1.000000
PN_027.1	50.000000	0.850000
PN_027.1	52.000000	0.750000
PN_027.1	55.000000	0.500000
PN_027.1	58.000000	0.250000
PN_027.1	60.000000	0.012500
PN_027.1	61.000000	0.000000
; 
PN_029.1	PUMP3	0.000000	1.750000
PN_029.1	30.000000	1.650000
PN_029.1	35.000000	1.600000
PN_029.1	40.000000	1.500000
PN_029.1	45.000000	1.250000
PN_029.1	48.000000	1.000000
PN_029.1	50.000000	0.850000
PN_029.1	52.000000	0.750000
PN_029.1	55.000000	0.500000
PN_029.1	58.000000	0.250000
PN_029.1	60.000000	0.012500
PN_029.1	61.000000	0.000000
; 
PN_030.1	PUMP3	0.000000	1.750000
PN_030.1	30.000000	1.650000
PN_030.1	35.000000	1.600000
PN_030.1	40.000000	1.500000
PN_030.1	45.000000	1.250000
PN_030.1	48.000000	1.000000
PN_030.1	50.000000	0.850000
PN_030.1	52.000000	0.750000
PN_030.1	55.000000	0.500000
PN_030.1	58.000000	0.250000
PN_030.1	60.000000	0.012500
PN_030.1	61.000000	0.000000
; 
PN_031.1	PUMP3	0.000000	1.750000