[OPTIONS]
;Option and Files Scenario Set: BASE, Base Simulation Options
FLOW_UNITS	GPM
INFILTRATION	HORTON
FLOW_ROUTING	DYNWAVE
ALLOW_PONDING	NO
DRY_DAYS	5.000000
SKIP_STEADY_STATE 	NO
IGNORE_RAINFALL	NO
IGNORE_SNOWMELT	NO
IGNORE_GROUNDWATER	NO
IGNORE_QUALITY	NO
FORCE_MAIN_EQUATION	H-W
LINK_OFFSETS	DEPTH
MIN_SLOPE	0.000000
START_DATE	01/01/2002
START_TIME	00:00
END_DATE	01/01/2002
END_TIME	23:00
REPORT_START_DATE	01/01/2002
REPORT_START_TIME	00:00
SWEEP_START	01/01
SWEEP_END	12/31
WET_STEP	01:00:00
DRY_STEP	24:00:00
ROUTING_STEP	5
REPORT_STEP	00:00:30
INERTIAL_DAMPING	NONE
VARIABLE_STEP	0.750000
MINIMUM_STEP	5.000000
LENGTHENING_STEP	5
MIN_SURFAREA	0.000000
NORMAL_FLOW_LIMITED	BOTH
MAX_TRIALS	8
HEAD_TOLERANCE	0.001000

[FILES]

[RAINGAGES]

[HYDROGRAPHS]

[TEMPERATURE]

[ADJUSTMENTS]

[SUBCATCHMENTS]

[SUBAREAS]

[INFILTRATION]

[AQUIFERS]

[GROUNDWATER]

[GWF]

[SNOWPACKS]

[JUNCTIONS]
069-054	941.800000	3.810000	0.000000	0.000000	0.000000
069-055	940.980000	3.760000	0.000000	0.000000	0.000000
070-001	937.110000	3.000000	0.000000	0.000000	0.000000
070-002	935.810000	3.000000	0.000000	0.000000	0.000000
070-003	935.550000	5.860000	0.000000	0.000000	0.000000
070-004	934.140000	6.200000	0.000000	0.000000	0.000000
070-005	932.920000	6.460000	0.000000	0.000000	0.000000
070-006	931.580000	6.900000	0.000000	0.000000	0.000000
070-007	930.910000	5.890000	0.000000	0.000000	0.000000
070-008	927.714000	8.671400	0.000000	0.000000	0.000000
070-009	925.700000	7.410000	0.000000	0.000000	0.000000
070-010	924.110000	7.540000	0.000000	0.000000	0.000000
070-011	921.852000	6.679720	0.000000	0.000000	0.000000
070-012	921.990000	5.960000	0.000000	0.000000	0.000000
070-013	916.440000	5.300000	0.000000	0.000000	0.000000
070-014	915.520000	6.520000	0.000000	0.000000	0.000000
070-015	911.990000	5.200000	0.000000	0.000000	0.000000
070-016	907.830000	8.460000	0.000000	0.000000	0.000000
070-017	904.500000	8.580000	0.000000	0.000000	0.000000
070-031	936.600000	3.000000	0.000000	0.000000	0.000000
070-032	938.680000	5.920000	0.000000	0.000000	0.000000
070-033	939.030000	3.000000	0.000000	0.000000	0.000000
070-034	929.710000	7.190000	0.000000	0.000000	0.000000
071-104	892.700000	8.400000	0.000000	0.000000	0.000000
071-105	888.380000	5.820000	0.000000	0.000000	0.000000
071-106	873.280000	6.810000	0.000000	0.000000	0.000000
071-107	868.020000	6.620000	0.000000	0.000000	0.000000
071-108	865.260000	7.460000	0.000000	0.000000	0.000000
071-109	863.390000	5.840000	0.000000	0.000000	0.000000
071-115	864.650000	4.180000	0.000000	0.000000	0.000000
071-117	855.500000	4.040000	0.000000	0.000000	0.000000
071-118	855.210000	3.000000	0.000000	0.000000	0.000000
071-119	852.720000	5.620000	0.000000	0.000000	0.000000
071-123	853.310000	3.290000	0.000000	0.000000	0.000000
071-124	848.280000	5.830000	0.000000	0.000000	0.000000
071-125	846.910000	8.800000	0.000000	0.000000	0.000000
071-126	841.390000	12.080000	0.000000	0.000000	0.000000
071-127	838.470000	10.250000	0.000000	0.000000	0.000000
071-128	834.160000	6.670000	0.000000	0.000000	0.000000
071-129	843.630000	8.250000	0.000000	0.000000	0.000000
071-157	900.450000	4.320000	0.000000	0.000000	0.000000
071-158	899.610000	4.000000	0.000000	0.000000	0.000000
071-159	897.400000	5.650000	0.000000	0.000000	0.000000
071-160	894.640000	8.000000	0.000000	0.000000	0.000000
071-161	893.180000	8.600000	0.000000	0.000000	0.000000
071-163	855.640000	6.380000	0.000000	0.000000	0.000000
071-164	854.450000	13.320000	0.000000	0.000000	0.000000
071-165	854.060000	3.000000	0.000000	0.000000	0.000000
071-166	853.940000	3.000000	0.000000	0.000000	0.000000
071-167	852.920000	7.250000	0.000000	0.000000	0.000000
071-168	853.080000	6.020000	0.000000	0.000000	0.000000
071-171	850.780000	8.430000	0.000000	0.000000	0.000000
071-172	848.590000	5.220000	0.000000	0.000000	0.000000
071-181	838.370000	16.400000	0.000000	0.000000	0.000000
071-217	872.160000	5.340000	0.000000	0.000000	0.000000
071-220	860.220000	3.000000	0.000000	0.000000	0.000000
071-221	845.170000	8.150000	0.000000	0.000000	0.000000
071-227	856.776000	7.085360	0.000000	0.000000	0.000000
071-228	857.705000	14.294840	0.000000	0.000000	0.000000
071-235	866.848000	7.440000	0.000000	0.000000	0.000000
071-237	857.804000	16.195640	0.000000	0.000000	0.000000
083-004	832.480000	8.350000	0.000000	0.000000	0.000000
083-005	832.030000	5.850000	0.000000	0.000000	0.000000
083-006	828.210000	8.960000	0.000000	0.000000	0.000000
083-007	821.330000	8.950000	0.000000	0.000000	0.000000
083-008	820.380000	12.380000	0.000000	0.000000	0.000000
083-009	848.660000	5.900000	0.000000	0.000000	0.000000
083-010	836.930000	8.470000	0.000000	0.000000	0.000000
083-011	826.410000	9.150000	0.000000	0.000000	0.000000
083-012	817.070000	21.220000	0.000000	0.000000	0.000000
083-013	817.710000	15.000000	0.000000	0.000000	0.000000
083-014	819.272000	19.727600	0.000000	0.000000	0.000000
083-015	819.408000	19.592200	0.000000	0.000000	0.000000
083-016	837.019000	18.342640	0.000000	0.000000	0.000000
083-129	846.340000	4.160000	0.000000	0.000000	0.000000
083-130	840.940000	6.650000	0.000000	0.000000	0.000000
083-131	839.440000	7.000000	0.000000	0.000000	0.000000
083-132	839.110000	8.280000	0.000000	0.000000	0.000000
083-133	831.110000	13.500000	0.000000	0.000000	0.000000
083-134	825.590000	7.900000	0.000000	0.000000	0.000000
083-157	851.540000	3.000000	0.000000	0.000000	0.000000
083-158	828.620000	20.020000	0.000000	0.000000	0.000000
083-159	823.520000	7.710000	0.000000	0.000000	0.000000

[OUTFALLS]
083-160	814.680000	FREE	NO
; New Outfall
OFALL-10	814.680000	FREE	NO

[DIVIDERS]

[STORAGE]

[CONDUITS]
1000	071-125	071-221	260.041605	0.010000	0.000000	0.000000	0.000000	0.000000
1001	071-221	071-126	22.472814	0.010000	0.000000	0.000000	0.000000	0.000000
1002	071-126	071-127	136.745488	0.010000	0.000000	0.000000	0.000000	0.000000
1023	071-129	071-128	203.528772	0.010000	0.000000	0.000000	0.000000	0.000000
1024	071-128	083-004	105.181527	0.010000	0.000000	0.000000	0.000000	0.000000
1025	083-004	083-006	346.615111	0.010000	0.000000	0.000000	0.000000	0.000000
1026	083-007	083-008	218.796212	0.010000	0.000000	0.000000	0.000000	0.000000
1027	083-159	083-008	149.982294	0.010000	0.000000	0.000000	0.000000	0.000000
1028	083-011	083-159	201.944107	0.010000	0.000000	0.000000	0.000000	0.000000
1029	083-158	083-011	101.838761	0.010000	0.000000	0.000000	0.000000	0.000000
1082	070-012	070-011	34.425381	0.010000	0.000000	0.000000	0.000000	0.000000
1099	070-010	070-011	289.101586	0.010000	0.000000	0.000000	0.000000	0.000000
1100	070-009	070-010	136.326949	0.010000	0.000000	0.000000	0.000000	0.000000
1110	071-228	071-167	166.294860	0.010000	0.000000	0.000000	0.000000	0.000000
1112	071-164	071-166	85.870481	0.010000	0.000000	0.000000	0.000000	0.000000
1141	083-010	083-158	172.515642	0.010000	0.000000	0.000000	0.000000	0.000000
1154	083-129	083-130	76.148989	0.010000	0.000000	0.000000	0.000000	0.000000
1162	083-131	083-132	31.317901	0.010000	0.000000	0.000000	0.000000	0.000000
1163	083-132	083-133	104.027691	0.010000	0.000000	0.000000	0.000000	0.000000
1164	083-134	083-008	63.067089	0.010000	0.000000	0.000000	0.000000	0.000000
1217	071-227	071-171	151.411815	0.010000	0.000000	0.000000	0.000000	0.000000
1218	071-237	071-228	24.802135	0.010000	0.000000	0.000000	0.000000	0.000000
160	070-031	070-003	196.264677	0.010000	0.000000	0.000000	0.000000	0.000000
161	070-032	070-031	280.859643	0.010000	0.000000	0.000000	0.000000	0.000000
162	070-033	070-032	282.675514	0.010000	0.000000	0.000000	0.000000	0.000000
163	069-055	070-033	265.328929	0.010000	0.000000	0.000000	0.000000	0.000000
164	069-054	069-055	167.685902	0.010000	0.000000	0.000000	0.000000	0.000000
169	083-009	083-010	450.293701	0.010000	0.000000	0.000000	0.000000	0.000000
171	083-130	083-131	88.424219	0.010000	0.000000	0.000000	0.000000	0.000000
176	083-133	083-134	185.797587	0.010000	0.000000	0.000000	0.000000	0.000000
185	070-001	070-002	253.794352	0.010000	0.000000	0.000000	0.000000	0.000000
186	070-002	070-003	150.625724	0.010000	0.000000	0.000000	0.000000	0.000000
187	070-003	070-004	224.322349	0.010000	0.000000	0.000000	0.000000	0.000000
188	070-004	070-005	296.418537	0.010000	0.000000	0.000000	0.000000	0.000000
189	070-005	070-006	50.059053	0.010000	0.000000	0.000000	0.000000	0.000000
190	070-034	070-008	499.100506	0.010000	0.000000	0.000000	0.000000	0.000000
191	070-008	070-009	541.368114	0.010000	0.000000	0.000000	0.000000	0.000000
192	070-011	070-013	533.388099	0.010000	0.000000	0.000000	0.000000	0.000000
193	070-013	070-014	202.640451	0.010000	0.000000	0.000000	0.000000	0.000000
197	070-006	070-007	280.380056	0.010000	0.000000	0.000000	0.000000	0.000000
198	070-007	070-034	218.742025	0.010000	0.000000	0.000000	0.000000	0.000000
332	083-016	083-015	62.385275	0.010000	0.000000	0.000000	0.000000	0.000000
333	083-015	083-014	33.852451	0.010000	0.000000	0.000000	0.000000	0.000000
334	083-008	083-013	399.681448	0.010000	0.000000	0.000000	0.000000	0.000000
335	083-013	083-012	101.923055	0.010000	0.000000	0.000000	0.000000	0.000000
336	083-012	083-160	24.261349	0.010000	0.000000	0.000000	0.000000	0.000000
404	071-168	071-119	134.293075	0.010000	0.000000	0.000000	0.000000	0.000000
482	071-235	071-165	70.882478	0.010000	0.000000	0.000000	0.000000	0.000000
539	083-157	083-009	4.086640	0.010000	0.000000	0.000000	0.000000	0.000000
545	083-014	083-013	260.602938	0.010000	0.000000	0.000000	0.000000	0.000000
561	071-117	071-164	239.661872	0.010000	0.000000	0.000000	0.000000	0.000000
572	071-166	071-168	238.551678	0.010000	0.000000	0.000000	0.000000	0.000000
586	070-014	070-015	306.307363	0.010000	0.000000	0.000000	0.000000	0.000000
587	070-015	070-016	388.098179	0.010000	0.000000	0.000000	0.000000	0.000000
588	070-016	070-017	328.195106	0.010000	0.000000	0.000000	0.000000	0.000000
589	070-017	071-157	414.156249	0.010000	0.000000	0.000000	0.000000	0.000000
590	071-157	071-158	81.278480	0.010000	0.000000	0.000000	0.000000	0.000000
591	071-158	071-159	423.827605	0.010000	0.000000	0.000000	0.000000	0.000000
592	071-159	071-104	364.617289	0.010000	0.000000	0.000000	0.000000	0.000000
68	071-220	071-124	114.041830	0.010000	0.000000	0.000000	0.000000	0.000000
74	071-109	071-117	210.221464	0.010000	0.000000	0.000000	0.000000	0.000000
77	071-127	071-128	190.930209	0.010000	0.000000	0.000000	0.000000	0.000000
78	071-181	071-128	134.815760	0.010000	0.000000	0.000000	0.000000	0.000000
83	083-006	083-007	382.082901	0.010000	0.000000	0.000000	0.000000	0.000000
955	071-123	071-124	145.852851	0.010000	0.000000	0.000000	0.000000	0.000000
956	071-165	071-167	217.143478	0.010000	0.000000	0.000000	0.000000	0.000000
957	071-167	071-119	155.683976	0.010000	0.000000	0.000000	0.000000	0.000000
958	071-119	071-171	112.046421	0.010000	0.000000	0.000000	0.000000	0.000000
959	071-171	071-172	141.523579	0.010000	0.000000	0.000000	0.000000	0.000000
960	071-172	071-124	69.329656	0.010000	0.000000	0.000000	0.000000	0.000000
961	071-118	071-164	12.820534	0.010000	0.000000	0.000000	0.000000	0.000000
962	071-163	071-118	63.211703	0.010000	0.000000	0.000000	0.000000	0.000000
971	071-115	071-109	100.620979	0.010000	0.000000	0.000000	0.000000	0.000000
979	071-160	071-161	90.990286	0.010000	0.000000	0.000000	0.000000	0.000000
980	071-161	071-104	19.643085	0.010000	0.000000	0.000000	0.000000	0.000000
981	071-104	071-105	243.509776	0.010000	0.000000	0.000000	0.000000	0.000000
982	071-105	071-106	426.336233	0.010000	0.000000	0.000000	0.000000	0.000000
983	071-106	071-217	231.589240	0.010000	0.000000	0.000000	0.000000	0.000000
984	071-217	071-107	192.629878	0.010000	0.000000	0.000000	0.000000	0.000000
985	071-107	071-108	165.064737	0.010000	0.000000	0.000000	0.000000	0.000000
986	071-108	071-109	125.662380	0.010000	0.000000	0.000000	0.000000	0.000000
998	083-005	083-006	122.316480	0.010000	0.000000	0.000000	0.000000	0.000000
999	071-124	071-125	201.113797	0.010000	0.000000	0.000000	0.000000	0.000000

[PUMPS]

[ORIFICES]

[WEIRS]

[XSECTIONS]
1000	CIRCULAR	0.833000	0.000000	0.000000	0.000000	1	0
1001	CIRCULAR	1.000000	0.000000	0.000000	0.000000	1	0
1002	CIRCULAR	1.000000	0.000000	0.000000	0.000000	1	0
1023	CIRCULAR	0.667000	0.000000	0.000000	0.000000	1	0
1024	CIRCULAR	0.667000	0.000000	0.000000	0.000000	1	0
1025	CIRCULAR	0.833000	0.000000	0.000000	0.000000	1	0
1026	CIRCULAR	0.833000	0.000000	0.000000	0.000000	1	0
1027	CIRCULAR	0.833000	0.000000	0.000000	0.000000	1	0
1028	CIRCULAR	0.833000	0.000000	0.000000	0.000000	1	0
1029	CIRCULAR	0.833000	0.000000	0.000000	0.000000	1	0
1082	CIRCULAR	0.667000	0.000000	0.000000	0.000000	1	0
1099	CIRCULAR	0.667000	0.000000	0.000000	0.000000	1	0
1100	CIRCULAR	0.667000	0.000000	0.000000	0.000000	1	0
1110	CIRCULAR	0.667000	0.000000	0.000000	0.000000	1	0
1112	CIRCULAR	0.833000	0.000000	0.000000	0.000000	1	0
1141	CIRCULAR	0.833000	0.000000	0.000000	0.000000	1	0
1154	CIRCULAR	0.667000	0.000000	0.000000	0.000000	1	0
1162	CIRCULAR	0.667000	0.000000	0.000000	0.000000	1	0
1163	CIRCULAR	0.667000	0.000000	0.000000	0.000000	1	0
1164	CIRCULAR	0.667000	0.000000	0.000000	0.000000	1	0
1217	CIRCULAR	0.667000	0.000000	0.000000	0.000000	1	0
1218	CIRCULAR	0.667000	0.000000	0.000000	0.000000	1	0
160	CIRCULAR	0.667000	0.000000	0.000000	0.000000	1	0
161	CIRCULAR	0.667000	0.000000	0.000000	0.000000	1	0
162	CIRCULAR	0.667000	0.000000	0.000000	0.000000	1	0
163	CIRCULAR	0.667000	0.000000	0.000000	0.000000	1	0
164	CIRCULAR	0.667000	0.000000	0.000000	0.000000	1	0
169	CIRCULAR	0.833000	0.000000	0.000000	0.000000	1	0
171	CIRCULAR	0.667000	0.000000	0.000000	0.000000	1	0
176	CIRCULAR	0.667000	0.000000	0.000000	0.000000	1	0
185	CIRCULAR	0.667000	0.000000	0.000000	0.000000	1	0
186	CIRCULAR	0.667000	0.000000	0.000000	0.000000	1	0
187	CIRCULAR	0.667000	0.000000	0.000000	0.000000	1	0
188	CIRCULAR	0.667000	0.000000	0.000000	0.000000	1	0
189	CIRCULAR	0.667000	0.000000	0.000000	0.000000	1	0
190	CIRCULAR	0.667000	0.000000	0.000000	0.000000	1	0
191	CIRCULAR	0.667000	0.000000	0.000000	0.000000	1	0
192	CIRCULAR	0.667000	0.000000	0.000000	0.000000	1	0
193	CIRCULAR	0.667000	0.000000	0.000000	0.000000	1	0
197	CIRCULAR	0.667000	0.000000	0.000000	0.000000	1	0
198	CIRCULAR	0.667000	0.000000	0.000000	0.000000	1	0
332	CIRCULAR	0.833000	0.000000	0.000000	0.000000	1	0
333	CIRCULAR	0.833000	0.000000	0.000000	0.000000	1	0
334	CIRCULAR	0.833000	0.000000	0.000000	0.000000	1	0
335	CIRCULAR	0.833000	0.000000	0.000000	0.000000	1	0
336	CIRCULAR	1.667000	0.000000	0.000000	0.000000	1	0
404	CIRCULAR	0.833000	0.000000	0.000000	0.000000	1	0
482	CIRCULAR	0.667000	0.000000	0.000000	0.000000	1	0
539	CIRCULAR	0.833000	0.000000	0.000000	0.000000	1	0
545	CIRCULAR	0.833000	0.000000	0.000000	0.000000	1	0
561	CIRCULAR	0.833000	0.000000	0.000000	0.000000	1	0
572	CIRCULAR	0.833000	0.000000	0.000000	0.000000	1	0
586	CIRCULAR	0.667000	0.000000	0.000000	0.000000	1	0
587	CIRCULAR	0.667000	0.000000	0.000000	0.000000	1	0
588	CIRCULAR	0.667000	0.000000	0.000000	0.000000	1	0
589	CIRCULAR	0.667000	0.000000	0.000000	0.000000	1	0
590	CIRCULAR	0.667000	0.000000	0.000000	0.000000	1	0
591	CIRCULAR	0.667000	0.000000	0.000000	0.000000	1	0
592	CIRCULAR	0.667000	0.000000	0.000000	0.000000	1	0
68	CIRCULAR	0.667000	0.000000	0.000000	0.000000	1	0
74	CIRCULAR	0.833000	0.000000	0.000000	0.000000	1	0
77	CIRCULAR	1.000000	0.000000	0.000000	0.000000	1	0
78	CIRCULAR	0.667000	0.000000	0.000000	0.000000	1	0
83	CIRCULAR	0.833000	0.000000	0.000000	0.000000	1	0
955	CIRCULAR	0.667000	0.000000	0.000000	0.000000	1	0
956	CIRCULAR	0.667000	0.000000	0.000000	0.000000	1	0
957	CIRCULAR	0.667000	0.000000	0.000000	0.000000	1	0
958	CIRCULAR	0.833000	0.000000	0.000000	0.000000	1	0
959	CIRCULAR	0.833000	0.000000	0.000000	0.000000	1	0
960	CIRCULAR	0.833000	0.000000	0.000000	0.000000	1	0
961	CIRCULAR	0.667000	0.000000	0.000000	0.000000	1	0
962	CIRCULAR	0.667000	0.000000	0.000000	0.000000	1	0
971	CIRCULAR	0.667000	0.000000	0.000000	0.000000	1	0
979	CIRCULAR	0.833000	0.000000	0.000000	0.000000	1	0
980	CIRCULAR	0.833000	0.000000	0.000000	0.000000	1	0
981	CIRCULAR	0.833000	0.000000	0.000000	0.000000	1	0
982	CIRCULAR	0.833000	0.000000	0.000000	0.000000	1	0
983	CIRCULAR	0.833000	0.000000	0.000000	0.000000	1	0
984	CIRCULAR	0.833000	0.000000	0.000000	0.000000	1	0
985	CIRCULAR	0.833000	0.000000	0.000000	0.000000	1	0
986	CIRCULAR	0.833000	0.000000	0.000000	0.000000	1	0
998	CIRCULAR	0.667000	0.000000	0.000000	0.000000	1	0
999	CIRCULAR	0.833000	0.000000	0.000000	0.000000	1	0

[TRANSECTS]

[LOSSES]
1000	0.000000	0.000000	0.000000	NO	0.000000
1001	0.000000	0.000000	0.000000	NO	0.000000
1002	0.000000	0.000000	0.000000	NO	0.000000
1023	0.000000	0.000000	0.000000	NO	0.000000
1024	0.000000	0.000000	0.000000	NO	0.000000
1025	0.000000	0.000000	0.000000	NO	0.000000
1026	0.000000	0.000000	0.000000	NO	0.000000
1027	0.000000	0.000000	0.000000	NO	0.000000
1028	0.000000	0.000000	0.000000	NO	0.000000
1029	0.000000	0.000000	0.000000	NO	0.000000
1082	0.000000	0.000000	0.000000	NO	0.000000
1099	0.000000	0.000000	0.000000	NO	0.000000
1100	0.000000	0.000000	0.000000	NO	0.000000
1110	0.000000	0.000000	0.000000	NO	0.000000
1112	0.000000	0.000000	0.000000	NO	0.000000
1141	0.000000	0.000000	0.000000	NO	0.000000
1154	0.000000	0.000000	0.000000	NO	0.000000
1162	0.000000	0.000000	0.000000	NO	0.000000
1163	0.000000	0.000000	0.000000	NO	0.000000
1164	0.000000	0.000000	0.000000	NO	0.000000
1217	0.000000	0.000000	0.000000	NO	0.000000
1218	0.000000	0.000000	0.000000	NO	0.000000
160	0.000000	0.000000	0.000000	NO	0.000000
161	0.000000	0.000000	0.000000	NO	0.000000
162	0.000000	0.000000	0.000000	NO	0.000000
163	0.000000	0.000000	0.000000	NO	0.000000
164	0.000000	0.000000	0.000000	NO	0.000000
169	0.000000	0.000000	0.000000	NO	0.000000
171	0.000000	0.000000	0.000000	NO	0.000000
176	0.000000	0.000000	0.000000	NO	0.000000
185	0.000000	0.000000	0.000000	NO	0.000000
186	0.000000	0.000000	0.000000	NO	0.000000
187	0.000000	0.000000	0.000000	NO	0.000000
188	0.000000	0.000000	0.000000	NO	0.000000
189	0.000000	0.000000	0.000000	NO	0.000000
190	0.000000	0.000000	0.000000	NO	0.000000
191	0.000000	0.000000	0.000000	NO	0.000000
192	0.000000	0.000000	0.000000	NO	0.000000
193	0.000000	0.000000	0.000000	NO	0.000000
197	0.000000	0.000000	0.000000	NO	0.000000
198	0.000000	0.000000	0.000000	NO	0.000000
332	0.000000	0.000000	0.000000	NO	0.000000
333	0.000000	0.000000	0.000000	NO	0.000000
334	0.000000	0.000000	0.000000	NO	0.000000
335	0.000000	0.000000	0.000000	NO	0.000000
336	0.000000	0.000000	0.000000	NO	0.000000
404	0.000000	0.000000	0.000000	NO	0.000000
482	0.000000	0.000000	0.000000	NO	0.000000
539	0.000000	0.000000	0.000000	NO	0.000000
545	0.000000	0.000000	0.000000	NO	0.000000
561	0.000000	0.000000	0.000000	NO	0.000000
572	0.000000	0.000000	0.000000	NO	0.000000
586	0.000000	0.000000	0.000000	NO	0.000000
587	0.000000	0.000000	0.000000	NO	0.000000
588	0.000000	0.000000	0.000000	NO	0.000000
589	0.000000	0.000000	0.000000	NO	0.000000
590	0.000000	0.000000	0.000000	NO	0.000000
591	0.000000	0.000000	0.000000	NO	0.000000
592	0.000000	0.000000	0.000000	NO	0.000000
68	0.000000	0.000000	0.000000	NO	0.000000
74	0.000000	0.000000	0.000000	NO	0.000000
77	0.000000	0.000000	0.000000	NO	0.000000
78	0.000000	0.000000	0.000000	NO	0.000000
83	0.000000	0.000000	0.000000	NO	0.000000
955	0.000000	0.000000	0.000000	NO	0.000000
956	0.000000	0.000000	0.000000	NO	0.000000
957	0.000000	0.000000	0.000000	NO	0.000000
958	0.000000	0.000000	0.000000	NO	0.000000
959	0.000000	0.000000	0.000000	NO	0.000000
960	0.000000	0.000000	0.000000	NO	0.000000
961	0.000000	0.000000	0.000000	NO	0.000000
962	0.000000	0.000000	0.000000	NO	0.000000
971	0.000000	0.000000	0.000000	NO	0.000000
979	0.000000	0.000000	0.000000	NO	0.000000
980	0.000000	0.000000	0.000000	NO	0.000000
981	0.000000	0.000000	0.000000	NO	0.000000
982	0.000000	0.000000	0.000000	NO	0.000000
983	0.000000	0.000000	0.000000	NO	0.000000
984	0.000000	0.000000	0.000000	NO	0.000000
985	0.000000	0.000000	0.000000	NO	0.000000
986	0.000000	0.000000	0.000000	NO	0.000000
998	0.000000	0.000000	0.000000	NO	0.000000
999	0.000000	0.000000	0.000000	NO	0.000000

[CONTROLS]

[POLLUTANTS]

[LANDUSES]

[COVERAGES]

[BUILDUP]

[WASHOFF]

[TREATMENT]

[INFLOWS]
069-054	FLOW	1	FLOW  1.0	1.000000

[DWF]
069-054	FLOW	0.004412	"PATN-1"	""	""	""
069-055	FLOW	0.097087	""	""	""	""
070-001	FLOW	0.227009	"PATN-1"	""	""	""
070-002	FLOW	0.097087	""	""	""	""
070-003	FLOW	0.097087	""	""	""	""
070-004	FLOW	0.097087	""	""	""	""
070-005	FLOW	0.097087	""	""	""	""
070-006	FLOW	0.097087	""	""	""	""
070-007	FLOW	0.097087	""	""	""	""
070-008	FLOW	0.097087	""	""	""	""
070-009	FLOW	0.097087	""	""	""	""
070-010	FLOW	0.097087	""	""	""	""
070-011	FLOW	0.097087	""	""	""	""
070-012	FLOW	0.097087	""	""	""	""
070-013	FLOW	0.097087	""	""	""	""
070-014	FLOW	0.248850	"PATN-1"	""	""	""
070-015	FLOW	0.097087	""	""	""	""
070-016	FLOW	0.097087	""	""	""	""
070-017	FLOW	0.097087	""	""	""	""
070-031	FLOW	0.097087	""	""	""	""
070-032	FLOW	0.097087	""	""	""	""
070-033	FLOW	0.097087	""	""	""	""
070-034	FLOW	0.097087	""	""	""	""
071-104	FLOW	0.012795	"PATN-1"	""	""	""
071-105	FLOW	0.004192	"PATN-1"	""	""	""
071-106	FLOW	0.000221	"PATN-1"	""	""	""
071-107	FLOW	0.000882	"PATN-1"	""	""	""
071-108	FLOW	0.097087	""	""	""	""
071-109	FLOW	0.097087	""	""	""	""
071-115	FLOW	0.008824	"PATN-1"	""	""	""
071-117	FLOW	0.006839	"PATN-1"	""	""	""
071-118	FLOW	0.097087	""	""	""	""
071-119	FLOW	0.097087	""	""	""	""
071-123	FLOW	0.003309	"PATN-1"	""	""	""
071-124	FLOW	0.005736	"PATN-1"	""	""	""
071-125	FLOW	0.097087	""	""	""	""
071-126	FLOW	0.097087	""	""	""	""
071-127	FLOW	0.097087	""	""	""	""
071-128	FLOW	0.097087	""	""	""	""
071-129	FLOW	0.010369	"PATN-1"	""	""	""
071-157	FLOW	0.097087	""	""	""	""
071-158	FLOW	0.097087	""	""	""	""
071-159	FLOW	0.097087	""	""	""	""
071-160	FLOW	0.009266	"PATN-1"	""	""	""
071-161	FLOW	0.097087	""	""	""	""
071-163	FLOW	0.028238	"PATN-1"	""	""	""
071-164	FLOW	0.097087	""	""	""	""
071-165	FLOW	0.097087	""	""	""	""
071-166	FLOW	0.097087	""	""	""	""
071-167	FLOW	0.097087	""	""	""	""
071-168	FLOW	0.097087	""	""	""	""
071-171	FLOW	0.097087	""	""	""	""
071-172	FLOW	0.097087	""	""	""	""
071-181	FLOW	0.008604	"PATN-1"	""	""	""
071-217	FLOW	0.003309	"PATN-1"	""	""	""
071-220	FLOW	0.013237	"PATN-1"	""	""	""
071-221	FLOW	0.097087	""	""	""	""
071-227	FLOW	0.009486	"PATN-1"	""	""	""
071-228	FLOW	0.097087	""	""	""	""
071-235	FLOW	0.009707	"PATN-1"	""	""	""
071-237	FLOW	0.014781	"PATN-1"	""	""	""
083-004	FLOW	0.097087	""	""	""	""
083-005	FLOW	0.097087	""	""	""	""
083-006	FLOW	0.097087	""	""	""	""
083-007	FLOW	0.097087	""	""	""	""
083-008	FLOW	0.097087	""	""	""	""
083-009	FLOW	0.097087	""	""	""	""
083-010	FLOW	0.097087	""	""	""	""
083-011	FLOW	0.097087	""	""	""	""
083-012	FLOW	0.007060	"PATN-1"	""	""	""
083-013	FLOW	0.097087	""	""	""	""
083-014	FLOW	0.561676	"PATN-1"	""	""	""
083-015	FLOW	0.097087	""	""	""	""
083-016	FLOW	0.030224	"PATN-1"	""	""	""
083-129	FLOW	0.097087	""	""	""	""
083-130	FLOW	0.097087	""	""	""	""
083-131	FLOW	0.048093	"PATN-1"	""	""	""
083-132	FLOW	0.097087	""	""	""	""
083-133	FLOW	0.097087	""	""	""	""
083-134	FLOW	0.097087	""	""	""	""
083-157	FLOW	0.089127	"PATN-1"	""	""	""
083-158	FLOW	1.632524	"PATN-1"	""	""	""
083-159	FLOW	0.097087	""	""	""	""
083-160	FLOW	0.097087	""	""	""	""

[RDII]

[LOADINGS]

[CURVES]

[TIMESERIES]
; New Time Series
1	1/1/2002	0:02:00	400.000000
1	1/1/2002	0:03:00	400.000000
1	1/1/2002	0:04:00	400.000000
1	1/1/2002	0:05:00	400.000000
1	1/1/2002	0:06:00	400.000000
1	1/1/2002	0:07:00	0.000000
1	1/1/2002	0:15:00	0.000000
1	1/1/2002	0:16:00	400.000000
1	1/1/2002	0:17:00	400.000000
1	1/1/2002	0:18:00	400.000000
1	1/1/2002	0:19:00	400.000000
1	1/1/2002	0:20:00	400.000000
1	1/1/2002	0:21:00	400.000000
1	1/1/2002	0:22:00	0.000000
1	1/1/2002	0:30:00	0.000000
1	1/1/2002	0:31:00	400.000000
1	1/1/2002	0:32:00	400.000000
1	1/1/2002	0:33:00	400.000000
1	1/1/2002	0:34:00	400.000000
1	1/1/2002	0:35:00	400.000000
1	1/1/2002	0:36:00	400.000000
1	1/1/2002	0:37:00	0.000000
1	1/1/2002	0:45:00	0.000000
1	1/1/2002	0:46:00	400.000000
1	1/1/2002	0:47:00	400.000000
1	1/1/2002	0:48:00	400.000000
1	1/1/2002	0:49:00	400.000000
1	1/1/2002	0:50:00	400.000000
1	1/1/2002	0:51:00	400.000000
1	1/1/2002	0:52:00	0.000000
1	1/1/2002	1:00:00	0.000000
1	1/1/2002	1:01:00	400.000000
1	1/1/2002	1:02:00	400.000000
1	1/1/2002	1:03:00	400.000000
1	1/1/2002	1:04:00	400.000000
1	1/1/2002	1:05:00	400.000000
1	1/1/2002	1:06:00	400.000000
1	1/1/2002	1:07:00	0.000000
1	1/1/2002	1:15:00	0.000000
1	1/1/2002	1:16:00	400.000000
1	1/1/2002	1:17:00	400.000000
1	1/1/2002	1:18:00	400.000000
1	1/1/2002	1:19:00	400.000000
1	1/1/2002	1:20:00	400.000000
1	1/1/2002	1:21:00	400.000000
1	1/1/2002	1:22:00	0.000000
1	1/1/2002	1:30:00	0.000000
1	1/1/2002	1:31:00	400.000000
1	1/1/2002	1:32:00	400.000000
1	1/1/2002	1:33:00	400.000000
1	1/1/2002	1:34:00	400.000000
1	1/1/2002	1:35:00	400.000000
1	1/1/2002	1:36:00	400.000000
1	1/1/2002	1:37:00	0.000000
1	1/1/2002	1:45:00	0.000000
1	1/1/2002	1:46:00	400.000000
1	1/1/2002	1:47:00	400.000000
1	1/1/2002	1:48:00	400.000000
1	1/1/2002	1:49:00	400.000000
1	1/1/2002	1:50:00	400.000000
1	1/1/2002	1:51:00	400.000000
1	1/1/2002	1:52:00	0.000000
1	1/1/2002	2:00:00	0.000000
1	1/1/2002	2:01:00	400.000000
1	1/1/2002	2:02:00	400.000000
1	1/1/2002	2:03:00	400.000000
1	1/1/2002	2:04:00	400.000000
1	1/1/2002	2:05:00	400.000000
1	1/1/2002	2:06:00	400.000000
1	1/1/2002	2:07:00	0.000000
1	1/1/2002	2:15:00	0.000000
1	1/1/2002	2:16:00	400.000000
1	1/1/2002	2:17:00	400.000000
1	1/1/2002	2:18:00	400.000000
1	1/1/2002	2:19:00	400.000000
1	1/1/2002	2:20:00	400.000000
1	1/1/2002	2:21:00	400.000000
1	1/1/2002	2:22:00	0.000000
1	1/1/2002	2:30:00	0.000000
1	1/1/2002	2:31:00	400.000000
1	1/1/2002	2:32:00	400.000000
1	1/1/2002	2:33:00	400.000000
1	1/1/2002	2:34:00	400.000000
1	1/1/2002	2:35:00	400.000000
1	1/1/2002	2:36:00	400.000000
1	1/1/2002	2:37:00	0.000000
1	1/1/2002	2:45:00	0.000000
1	1/1/2002	2:46:00	400.000000
1	1/1/2002	2:47:00	400.000000
1	1/1/2002	2:48:00	400.000000
1	1/1/2002	2:49:00	400.000000
1	1/1/2002	2:50:00	400.000000
1	1/1/2002	2:51:00	400.000000
1	1/1/2002	2:52:00	0.000000
1	1/1/2002	3:00:00	0.000000
1	1/1/2002	3:01:00	400.000000
1	1/1/2002	3:02:00	400.000000
1	1/1/2002	3:03:00	400.000000
1	1/1/2002	3:04:00	400.000000
1	1/1/2002	3:05:00	400.000000
1	1/1/2002	3:06:00	400.000000
1	1/1/2002	3:07:00	0.000000
1	1/1/2002	3:15:00	0.000000
1	1/1/2002	3:16:00	400.000000
1	1/1/2002	3:17:00	400.000000
1	1/1/2002	3:18:00	400.000000
1	1/1/2002	3:19:00	400.000000
1	1/1/2002	3:20:00	400.000000
1	1/1/2002	3:21:00	400.000000
1	1/1/2002	3:22:00	0.000000
1	1/1/2002	3:30:00	0.000000
1	1/1/2002	3:31:00	400.000000
1	1/1/2002	3:32:00	400.000000
1	1/1/2002	3:33:00	400.000000
1	1/1/2002	3:34:00	400.000000
1	1/1/2002	3:35:00	400.000000
1	1/1/2002	3:36:00	400.000000
1	1/1/2002	3:37:00	0.000000
1	1/1/2002	3:45:00	0.000000
1	1/1/2002	3:46:00	400.000000
1	1/1/2002	3:47:00	400.000000
1	1/1/2002	3:48:00	400.000000
1	1/1/2002	3:49:00	400.000000
1	1/1/2002	3:50:00	400.000000
1	1/1/2002	3:51:00	400.000000
1	1/1/2002	3:52:00	0.000000
1	1/1/2002	4:00:00	0.000000
1	1/1/2002	4:01:00	400.000000
1	1/1/2002	4:02:00	400.000000
1	1/1/2002	4:03:00	400.000000
1	1/1/2002	4:04:00	400.000000
1	1/1/2002	4:05:00	400.000000
1	1/1/2002	4:06:00	400.000000
1	1/1/2002	4:07:00	0.000000
1	1/1/2002	4:15:00	0.000000
1	1/1/2002	4:16:00	400.000000
1	1/1/2002	4:17:00	400.000000
1	1/1/2002	4:18:00	400.000000
1	1/1/2002	4:19:00	400.000000
1	1/1/2002	4:20:00	400.000000
1	1/1/2002	4:21:00	400.000000
1	1/1/2002	4:22:00	0.000000
1	1/1/2002	4:30:00	0.000000
1	1/1/2002	4:31:00	400.000000
1	1/1/2002	4:32:00	400.000000
1	1/1/2002	4:33:00	400.000000
1	1/1/2002	4:34:00	400.000000
1	1/1/2002	4:35:00	400.000000
1	1/1/2002	4:36:00	400.000000
1	1/1/2002	4:37:00	0.000000
1	1/1/2002	4:45:00	0.000000
1	1/1/2002	4:46:00	400.000000
1	1/1/2002	4:47:00	400.000000
1	1/1/2002	4:48:00	400.000000
1	1/1/2002	4:49:00	400.000000
1	1/1/2002	4:50:00	400.000000
1	1/1/2002	4:51:00	400.000000
1	1/1/2002	4:52:00	0.000000
1	1/1/2002	5:00:00	0.000000
1	1/1/2002	5:01:00	400.000000
1	1/1/2002	5:02:00	400.000000
1	1/1/2002	5:03:00	400.000000
1	1/1/2002	5:04:00	400.000000
1	1/1/2002	5:05:00	400.000000
1	1/1/2002	5:06:00	400.000000
1	1/1/2002	5:07:00	0.000000
1	1/1/2002	5:15:00	0.000000
1	1/1/2002	5:16:00	400.000000
1	1/1/2002	5:17:00	400.000000
1	1/1/2002	5:18:00	400.000000
1	1/1/2002	5:19:00	400.000000
1	1/1/2002	5:20:00	400.000000
1	1/1/2002	5:21:00	400.000000
1	1/1/2002	5:22:00	0.000000
1	1/1/2002	5:30:00	0.000000
1	1/1/2002	5:31:00	400.000000
1	1/1/2002	5:32:00	400.000000
1	1/1/2002	5:33:00	400.000000
1	1/1/2002	5:34:00	400.000000
1	1/1/2002	5:35:00	400.000000
1	1/1/2002	5:36:00	400.000000
1	1/1/2002	5:37:00	0.000000
1	1/1/2002	5:45:00	0.000000
1	1/1/2002	5:46:00	400.000000
1	1/1/2002	5:47:00	400.000000
1	1/1/2002	5:48:00	400.000000
1	1/1/2002	5:49:00	400.000000
1	1/1/2002	5:50:00	400.000000
1	1/1/2002	5:51:00	400.000000
1	1/1/2002	5:52:00	0.000000
1	1/1/2002	6:00:00	0.000000
1	1/1/2002	6:01:00	400.000000
1	1/1/2002	6:02:00	400.000000
1	1/1/2002	6:03:00	400.000000
1	1/1/2002	6:04:00	400.000000
1	1/1/2002	6:05:00	400.000000
1	1/1/2002	6:06:00	400.000000
1	1/1/2002	6:07:00	0.000000
1	1/1/2002	6:15:00	0.000000
1	1/1/2002	6:16:00	400.000000
1	1/1/2002	6:17:00	400.000000
1	1/1/2002	6:18:00	400.000000
1	1/1/2002	6:19:00	400.000000
1	1/1/2002	6:20:00	400.000000
1	1/1/2002	6:21:00	400.000000
1	1/1/2002	6:22:00	0.000000
1	1/1/2002	6:30:00	0.000000
1	1/1/2002	6:31:00	400.000000
1	1/1/2002	6:32:00	400.000000
1	1/1/2002	6:33:00	400.000000
1	1/1/2002	6:34:00	400.000000
1	1/1/2002	6:35:00	400.000000
1	1/1/2002	6:36:00	400.000000
1	1/1/2002	6:37:00	0.000000
1	1/1/2002	6:45:00	0.000000
1	1/1/2002	6:46:00	400.000000
1	1/1/2002	6:47:00	400.000000
1	1/1/2002	6:48:00	400.000000
1	1/1/2002	6:49:00	400.000000
1	1/1/2002	6:50:00	400.000000
1	1/1/2002	6:51:00	400.000000
1	1/1/2002	6:52:00	0.000000
1	1/1/2002	7:00:00	0.000000
1	1/1/2002	7:01:00	400.000000
1	1/1/2002	7:02:00	400.000000
1	1/1/2002	7:03:00	400.000000
1	1/1/2002	7:04:00	400.000000
1	1/1/2002	7:05:00	400.000000
1	1/1/2002	7:06:00	400.000000
1	1/1/2002	7:07:00	0.000000
1	1/1/2002	7:15:00	0.000000