[TITLE]
;;Project Title/Notes

[OPTIONS]
;;Option             Value
FLOW_UNITS           LPS
INFILTRATION         HORTON
FLOW_ROUTING         DYNWAVE
LINK_OFFSETS         DEPTH
MIN_SLOPE            0
ALLOW_PONDING        NO
SKIP_STEADY_STATE    NO

START_DATE           12/14/2004
START_TIME           00:00:00
REPORT_START_DATE    12/14/2004
REPORT_START_TIME    00:00:00
END_DATE             12/29/2011
END_TIME             23:00:00
SWEEP_START          01/01
SWEEP_END            12/31
DRY_DAYS             5.000000
REPORT_STEP          00:05:00
WET_STEP             00:15:00
DRY_STEP             23:00:00
ROUTING_STEP         0:00:30 

INERTIAL_DAMPING     NONE
NORMAL_FLOW_LIMITED  BOTH
FORCE_MAIN_EQUATION  H-W
VARIABLE_STEP        0.75
LENGTHENING_STEP     0
MIN_SURFAREA         1.14
MAX_TRIALS           8
HEAD_TOLERANCE       0.0015
SYS_FLOW_TOL         5
LAT_FLOW_TOL         5
MINIMUM_STEP         0.5
THREADS              1

[EVAPORATION]
;;Data Source    Parameters
;;-------------- ----------------
CONSTANT         0.0
DRY_ONLY         NO

[RAINGAGES]
;;Name           Format    Interval SCF      Source    
;;-------------- --------- ------ ------ ----------
GAGE1            INTENSITY 1.000000 1.000000 TIMESERIES RAINFALL        

[SUBCATCHMENTS]
;;Name           Rain Gage        Outlet           Area     %Imperv  Width    %Slope   CurbLen  SnowPack        
;;-------------- ---------------- ---------------- -------- -------- -------- -------- -------- ----------------
WATERSHED        GAGE1            RDII_NODE        10.000000 10.000000 100.000000 1.000000 0.000000                 

[SUBAREAS]
;;Subcatchment   N-Imperv   N-Perv     S-Imperv   S-Perv     PctZero    RouteTo    PctRouted 
;;-------------- ---------- ---------- ---------- ---------- ---------- ---------- ----------
WATERSHED        0.100000   0.001000   0.050000   0.050000   25.000000  OUTLET    

[INFILTRATION]
;;Subcatchment   MaxRate    MinRate    Decay      DryTime    MaxInfil  
;;-------------- ---------- ---------- ---------- ---------- ----------
WATERSHED        3.0        0.5        4          7          0         

[OUTFALLS]
;;Name           Elevation  Type       Stage Data       Gated    Route To        
;;-------------- ---------- ---------- ---------------- -------- ----------------
RDII_NODE        0.000000   FREE                        NO                       

[CONTROLS]


[INFLOWS]
;;Node           Constituent      Time Series      Type     Mfactor  Sfactor  Baseline Pattern
;;-------------- ---------------- ---------------- -------- -------- -------- -------- --------
RDII_NODE        FLOW             ""               FLOW     1.0      1.000000         

[DWF]
;;Node           Constituent      Baseline   Patterns  
;;-------------- ---------------- ---------- ----------
RDII_NODE        FLOW             13.108451  "DWF_WKDAY" "" ""

[HYDROGRAPHS]
;;Hydrograph     Rain Gage/Month  Response R        T        K        Dmax     Drecov   Dinit   
;;-------------- ---------------- -------- -------- -------- -------- -------- -------- --------
HYDRO1           GAGE1           
HYDRO1           All              Short    0.133000 1.167000 12.064000 3.010000 1.819000 0.615000
HYDRO1           All              Medium   0.158000 12.726000 17.221000 0.000000 0.000000 0.000000
HYDRO1           All              Long     0.185000 128.525000 2.017000 0.000000 0.000000 0.000000
HYDROGRH-1       GAGE1           
HYDROGRH-1       All              Short    0.100000 1.000000 1.000000 1.000000 0.100000 0.000000
HYDROGRH-1       All              Medium   0.100000 2.000000 2.000000 1.000000 0.100000 0.000000
HYDROGRH-1       All              Long     0.100000 3.000000 3.000000 1.000000 0.100000 0.000000


[RDII]
;;Node           Unit Hydrograph  Sewer Area
;;-------------- ---------------- ----------
RDII_NODE        HYDRO1           10.000000 

[TIMESERIES]
;;Name           Date       Time       Value     
;;-------------- ---------- ---------- ----------
RAINFALL         12/02/04   00:00      0.000000  
RAINFALL         12/02/04   01:00      0.000000  
RAINFALL         12/02/04   02:00      0.000000  
RAINFALL         12/02/04   03:00      0.000000  
RAINFALL         12/02/04   04:00      0.000000  
RAINFALL         12/02/04   05:00      0.000000  
RAINFALL         12/02/04   06:00      0.000000  
RAINFALL         12/02/04   07:00      0.000000  
RAINFALL         12/02/04   08:00      0.000000  
RAINFALL         12/02/04   09:00      0.000000  
RAINFALL         12/02/04   10:00      0.000000  
RAINFALL         12/02/04   11:00      0.000000  
RAINFALL         12/02/04   12:00      0.000000  
RAINFALL         12/02/04   13:00      0.000000  
RAINFALL         12/02/04   14:00      0.000000  
RAINFALL         12/02/04   15:00      0.000000  
RAINFALL         12/02/04   16:00      0.000000  
RAINFALL         12/02/04   17:00      0.000000  
RAINFALL         12/02/04   18:00      0.000000  
RAINFALL         12/02/04   19:00      0.000000  
RAINFALL         12/02/04   20:00      0.000000  
RAINFALL         12/02/04   21:00      0.000000  
RAINFALL         12/02/04   22:00      0.000000  
RAINFALL         12/02/04   23:00      0.000000  
RAINFALL         12/03/04   00:00      0.000000  
RAINFALL         12/03/04   01:00      0.000000  
RAINFALL         12/03/04   02:00      0.000000  
RAINFALL         12/03/04   03:00      0.000000  
RAINFALL         12/03/04   04:00      0.000000  
RAINFALL         12/03/04   05:00      0.000000  
RAINFALL         12/03/04   06:00      0.000000  
RAINFALL         12/03/04   07:00      0.000000  
RAINFALL         12/03/04   08:00      0.000000  
RAINFALL         12/03/04   09:00      0.000000  
RAINFALL         12/03/04   10:00      0.000000  
RAINFALL         12/03/04   11:00      0.000000  
RAINFALL         12/03/04   12:00      0.000000  
RAINFALL         12/03/04   13:00      0.000000  
RAINFALL         12/03/04   14:00      0.000000  
RAINFALL         12/03/04   15:00      0.000000  
RAINFALL         12/03/04   16:00      0.000000  
RAINFALL         12/03/04   17:00      0.000000  
RAINFALL         12/03/04   18:00      0.000000  
RAINFALL         12/03/04   19:00      0.000000  
RAINFALL         12/03/04   20:00      0.000000  
RAINFALL         12/03/04   21:00      0.000000  
RAINFALL         12/03/04   22:00      0.000000  
RAINFALL         12/03/04   23:00      0.000000  
RAINFALL         12/04/04   00:00      0.000000  
RAINFALL         12/04/04   01:00      0.000000  
RAINFALL         12/04/04   02:00      0.000000  
RAINFALL         12/04/04   03:00      0.000000  
RAINFALL         12/04/04   04:00      0.000000  
RAINFALL         12/04/04   05:00      0.000000  
RAINFALL         12/04/04   06:00      0.000000  
RAINFALL         12/04/04   07:00      0.000000  
RAINFALL         12/04/04   08:00      0.000000  
RAINFALL         12/04/04   09:00      0.000000  
RAINFALL         12/04/04   10:00      0.000000  
RAINFALL         12/04/04   11:00      0.000000  
RAINFALL         12/04/04   12:00      0.000000  
RAINFALL         12/04/04   13:00      0.000000  
RAINFALL         12/04/04   14:00      0.000000  
RAINFALL         12/04/04   15:00      0.000000  
RAINFALL         12/04/04   16:00      0.000000  
RAINFALL         12/04/04   17:00      0.000000  
RAINFALL         12/04/04   18:00      0.000000  
RAINFALL         12/04/04   19:00      0.000000  
RAINFALL         12/04/04   20:00      0.000000  
RAINFALL         12/04/04   21:00      0.000000  
RAINFALL         12/04/04   22:00      0.000000  
RAINFALL         12/04/04   23:00      0.000000  
RAINFALL         12/05/04   00:00      0.000000  
RAINFALL         12/05/04   01:00      0.000000  
RAINFALL         12/05/04   02:00      0.000000  
RAINFALL         12/05/04   03:00      0.000000  
RAINFALL         12/05/04   04:00      0.000000  
RAINFALL         12/05/04   05:00      0.000000  
RAINFALL         12/05/04   06:00      0.000000  
RAINFALL         12/05/04   07:00      0.000000  
RAINFALL         12/05/04   08:00      0.000000  
RAINFALL         12/05/04   09:00      0.000000  
RAINFALL         12/05/04   10:00      0.000000  
RAINFALL         12/05/04   11:00      0.500000  
RAINFALL         12/05/04   12:00      0.000000  
RAINFALL         12/05/04   13:00      0.000000  
RAINFALL         12/05/04   14:00      0.000000  
RAINFALL         12/05/04   15:00      0.500000  
RAINFALL         12/05/04   16:00      0.500000  
RAINFALL         12/05/04   17:00      0.000000  
RAINFALL         12/05/04   18:00      0.000000  
RAINFALL         12/05/04   19:00      0.000000  
RAINFALL         12/05/04   20:00      0.000000  
RAINFALL         12/05/04   21:00      0.000000  
RAINFALL         12/05/04   22:00      0.000000  
RAINFALL         12/05/04   23:00      0.000000  
RAINFALL         12/06/04   00:00      0.000000  
RAINFALL         12/06/04   01:00      0.000000  
RAINFALL         12/06/04   02:00      0.000000  
RAINFALL         12/06/04   03:00      0.000000  
RAINFALL         12/06/04   04:00      0.000000  
RAINFALL         12/06/04   05:00      0.000000  
RAINFALL         12/06/04   06:00      0.000000  
RAINFALL         12/06/04   07:00      0.000000  
RAINFALL         12/06/04   08:00      0.000000  
RAINFALL         12/06/04   09:00      0.000000  
RAINFALL         12/06/04   10:00      0.000000  
RAINFALL         12/06/04   11:00      0.000000  
RAINFALL         12/06/04   12:00      0.000000  
RAINFALL         12/06/04   13:00      0.000000  
RAINFALL         12/06/04   14:00      0.000000  
RAINFALL         12/06/04   15:00      0.000000  
RAINFALL         12/06/04   16:00      0.000000  
RAINFALL         12/06/04   17:00      0.000000  
RAINFALL         12/06/04   18:00      0.000000  
RAINFALL         12/06/04   19:00      0.000000  
RAINFALL         12/06/04   20:00      0.000000  
RAINFALL         12/06/04   21:00      0.000000  
RAINFALL         12/06/04   22:00      0.000000  
RAINFALL         12/06/04   23:00      0.000000  
RAINFALL         12/07/04   00:00      0.000000  
RAINFALL         12/07/04   01:00      0.000000  
RAINFALL         12/07/04   02:00      0.000000  
RAINFALL         12/07/04   03:00      0.000000  
RAINFALL         12/07/04   04:00      0.000000  
RAINFALL         12/07/04   05:00      0.000000  
RAINFALL         12/07/04   06:00      0.000000  
RAINFALL         12/07/04   07:00      0.000000  
RAINFALL         12/07/04   08:00      0.000000  
RAINFALL         12/07/04   09:00      0.000000  
RAINFALL         12/07/04   10:00      0.000000  
RAINFALL         12/07/04   11:00      0.000000  
RAINFALL         12/07/04   12:00      0.000000  
RAINFALL         12/07/04   13:00      0.000000  
RAINFALL         12/07/04   14:00      0.000000  
RAINFALL         12/07/04   15:00      0.000000  
RAINFALL         12/07/04   16:00      0.000000  
RAINFALL         12/07/04   17:00      0.000000  
RAINFALL         12/07/04   18:00      0.000000  
RAINFALL         12/07/04   19:00      0.000000  
RAINFALL         12/07/04   20:00      0.000000  
RAINFALL         12/07/04   21:00      0.000000  
RAINFALL         12/07/04   22:00      0.000000  
RAINFALL         12/07/04   23:00      0.000000  
RAINFALL         12/08/04   00:00      0.000000  
RAINFALL         12/08/04   01:00      0.000000  
RAINFALL         12/08/04   02:00      0.000000  
RAINFALL         12/08/04   03:00      0.000000  
RAINFALL         12/08/04   04:00      0.000000  
RAINFALL         12/08/04   05:00      0.000000  
RAINFALL         12/08/04   06:00      0.000000  
RAINFALL         12/08/04   07:00      0.000000  
RAINFALL         12/08/04   08:00      0.000000  
RAINFALL         12/08/04   09:00      0.000000  
RAINFALL         12/08/04   10:00      0.000000  
RAINFALL         12/08/04   11:00      25.000000 
RAINFALL         12/08/04   12:00      0.000000  
RAINFALL         12/08/04   13:00      0.000000  
RAINFALL         12/08/04   14:00      0.000000  
RAINFALL         12/08/04   15:00      0.000000  
RAINFALL         12/08/04   16:00      0.000000  
RAINFALL         12/08/04   17:00      0.000000  
RAINFALL         12/08/04   18:00      0.000000  
RAINFALL         12/08/04   19:00      0.000000  
RAINFALL         12/08/04   20:00      0.000000  
RAINFALL         12/08/04   21:00      0.000000  
RAINFALL         12/08/04   22:00      0.000000  
RAINFALL         12/08/04   23:00      0.000000  
RAINFALL         12/09/04   00:00      0.000000  
RAINFALL         12/09/04   01:00      0.000000  
RAINFALL         12/09/04   02:00      0.000000  
RAINFALL         12/09/04   03:00      0.000000  
RAINFALL         12/09/04   04:00      0.000000  
RAINFALL         12/09/04   05:00      0.000000  
RAINFALL         12/09/04   06:00      0.000000  
RAINFALL         12/09/04   07:00      0.000000  
RAINFALL         12/09/04   08:00      0.000000  
RAINFALL         12/09/04   09:00      0.000000  
RAINFALL         12/09/04   10:00      0.000000  
RAINFALL         12/09/04   11:00      0.000000  
RAINFALL         12/09/04   12:00      0.000000  
RAINFALL         12/09/04   13:00      0.000000  
RAINFALL         12/09/04   14:00      0.000000  
RAINFALL         12/09/04   15:00      0.000000  
RAINFALL         12/09/04   16:00      0.000000  
RAINFALL         12/09/04   17:00      0.000000  
RAINFALL         12/09/04   18:00      0.000000  
RAINFALL         12/09/04   19:00      0.000000  
RAINFALL         12/09/04   20:00      0.000000  
RAINFALL         12/09/04   21:00      0.000000  
RAINFALL         12/09/04   22:00      0.000000  
RAINFALL         12/09/04   23:00      0.000000  
RAINFALL         12/10/04   00:00      0.000000  
RAINFALL         12/10/04   01:00      0.000000  
RAINFALL         12/10/04   02:00      0.000000  
RAINFALL         12/10/04   03:00      0.000000  
RAINFALL         12/10/04   04:00      0.000000  
RAINFALL         12/10/04   05:00      0.000000  
RAINFALL         12/10/04   06:00      0.000000  
RAINFALL         12/10/04   07:00      0.000000  
RAINFALL         12/10/04   08:00      0.000000  
RAINFALL         12/10/04   09:00      0.000000  
RAINFALL         12/10/04   10:00      0.000000  
RAINFALL         12/10/04   11:00      0.000000  
RAINFALL         12/10/04   12:00      0.000000  
RAINFALL         12/10/04   13:00      0.000000  
RAINFALL         12/10/04   14:00      0.000000  
RAINFALL         12/10/04   15:00      0.000000  
RAINFALL         12/10/04   16:00      0.000000  
RAINFALL         12/10/04   17:00      0.000000  
RAINFALL         12/10/04   18:00      0.000000  
RAINFALL         12/10/04   19:00      0.000000  
RAINFALL         12/10/04   20:00      0.000000  
RAINFALL         12/10/04   21:00      0.000000  
RAINFALL         12/10/04   22:00      0.000000  
RAINFALL         12/10/04   23:00      0.000000  
RAINFALL         12/11/04   00:00      0.000000  
RAINFALL         12/11/04   01:00      0.000000  
RAINFALL         12/11/04   02:00      0.000000  
RAINFALL         12/11/04   03:00      0.000000  
RAINFALL         12/11/04   04:00      0.000000  
RAINFALL         12/11/04   05:00      0.000000  
RAINFALL         12/11/04   06:00      0.000000  
RAINFALL         12/11/04   07:00      0.000000  
RAINFALL         12/11/04   08:00      0.000000  
RAINFALL         12/11/04   09:00      0.000000  
RAINFALL         12/11/04   10:00      0.000000  
RAINFALL         12/11/04   11:00      0.000000  
RAINFALL         12/11/04   12:00      0.000000  
RAINFALL         12/11/04   13:00      0.000000  
RAINFALL         12/11/04   14:00      0.000000  
RAINFALL         12/11/04   15:00      0.000000  
RAINFALL         12/11/04   16:00      0.000000  
RAINFALL         12/11/04   17:00      0.000000  
RAINFALL         12/11/04   18:00      0.000000  
RAINFALL         12/11/04   19:00      0.000000  
RAINFALL         12/11/04   20:00      0.000000  
RAINFALL         12/11/04   21:00      0.000000  
RAINFALL         12/11/04   22:00      0.000000  
RAINFALL         12/11/04   23:00      0.000000  
RAINFALL         12/12/04   00:00      0.000000  
RAINFALL         12/12/04   01:00      0.000000  
RAINFALL         12/12/04   02:00      0.000000  
RAINFALL         12/12/04   03:00      0.000000  
RAINFALL         12/12/04   04:00      0.000000  
RAINFALL         12/12/04   05:00      0.000000  
RAINFALL         12/12/04   06:00      0.000000  
RAINFALL         12/12/04   07:00      0.000000  
RAINFALL         12/12/04   08:00      0.000000  
RAINFALL         12/12/04   09:00      0.000000  
RAINFALL         12/12/04   10:00      0.000000  
RAINFALL         12/12/04   11:00      0.000000  
RAINFALL         12/12/04   12:00      0.000000  
RAINFALL         12/12/04   13:00      0.000000  
RAINFALL         12/12/04   14:00      0.000000  
RAINFALL         12/12/04   15:00      0.000000  
RAINFALL         12/12/04   16:00      0.000000  
RAINFALL         12/12/04   17:00      0.000000  
RAINFALL         12/12/04   18:00      0.000000  
RAINFALL         12/12/04   19:00      0.000000  
RAINFALL         12/12/04   20:00      0.000000  
RAINFALL         12/12/04   21:00      0.000000  
RAINFALL         12/12/04   22:00      0.000000  
RAINFALL         12/12/04   23:00      0.000000  
RAINFALL         12/13/04   00:00      0.000000  
RAINFALL         12/13/04   01:00      0.000000  
RAINFALL         12/13/04   02:00      0.000000  
RAINFALL         12/13/04   03:00      0.000000  
RAINFALL         12/13/04   04:00      0.000000  
RAINFALL         12/13/04   05:00      0.000000  
RAINFALL         12/13/04   06:00      0.000000  
RAINFALL         12/13/04   07:00      0.000000  
RAINFALL         12/13/04   08:00      0.000000  
RAINFALL         12/13/04   09:00      0.000000  
RAINFALL         12/13/04   10:00      0.000000  
RAINFALL         12/13/04   11:00      0.000000  
RAINFALL         12/13/04   12:00      0.000000  
RAINFALL         12/13/04   13:00      0.000000  
RAINFALL         12/13/04   14:00      0.000000  
RAINFALL         12/13/04   15:00      0.000000  
RAINFALL         12/13/04   16:00      0.000000  
RAINFALL         12/13/04   17:00      0.000000  
RAINFALL         12/13/04   18:00      0.000000  
RAINFALL         12/13/04   19:00      0.000000  
RAINFALL         12/13/04   20:00      0.000000  
RAINFALL         12/13/04   21:00      0.000000  
RAINFALL         12/13/04   22:00      0.000000  
RAINFALL         12/13/04   23:00      0.000000  
RAINFALL         12/14/04   00:00      0.000000  
RAINFALL         12/14/04   01:00      0.000000  
RAINFALL         12/14/04   02:00      0.000000  
RAINFALL         12/14/04   03:00      0.000000  
RAINFALL         12/14/04   04:00      0.000000  
RAINFALL         12/14/04   05:00      0.000000  
RAINFALL         12/14/04   06:00      0.000000  
RAINFALL         12/14/04   07:00      0.000000  
RAINFALL         12/14/04   08:00      0.000000  
RAINFALL         12/14/04   09:00      0.000000  
RAINFALL         12/14/04   10:00      0.000000  
RAINFALL         12/14/04   11:00      0.000000  
RAINFALL         12/14/04   12:00      0.000000  
RAINFALL         12/14/04   13:00      0.000000  
RAINFALL         12/14/04   14:00      0.000000  
RAINFALL         12/14/04   15:00      0.000000  
RAINFALL         12/14/04   16:00      0.000000  
RAINFALL         12/14/04   17:00      0.000000  
RAINFALL         12/14/04   18:00      0.000000  
RAINFALL         12/14/04   19:00      0.000000  
RAINFALL         12/14/04   20:00      0.000000  
RAINFALL         12/14/04   21:00      0.000000  
RAINFALL         12/14/04   22:00      0.000000  
RAINFALL         12/14/04   23:00      0.000000  
RAINFALL         12/15/04   00:00      0.000000  
RAINFALL         12/15/04   01:00      0.000000  
RAINFALL         12/15/04   02:00      0.000000  
RAINFALL         12/15/04   03:00      0.000000  
RAINFALL         12/15/04   04:00      0.000000  
RAINFALL         12/15/04   05:00      0.000000  
RAINFALL         12/15/04   06:00      0.000000  
RAINFALL         12/15/04   07:00      0.000000  
RAINFALL         12/15/04   08:00      0.000000  
RAINFALL         12/15/04   09:00      0.000000  
RAINFALL         12/15/04   10:00      0.000000  
RAINFALL         12/15/04   11:00      0.000000  
RAINFALL         12/15/04   12:00      0.000000  
RAINFALL         12/15/04   13:00      0.000000  
RAINFALL         12/15/04   14:00      0.000000  
RAINFALL         12/15/04   15:00      0.000000  
RAINFALL         12/15/04   16:00      0.000000  
RAINFALL         12/15/04   17:00      0.000000  
RAINFALL         12/15/04   18:00      0.680000  
RAINFALL         12/15/04   19:00      3.180000  
RAINFALL         12/15/04   20:00      1.820000  
RAINFALL         12/15/04   21:00      1.320000  
RAINFALL         12/15/04   22:00      0.000000  
RAINFALL         12/15/04   23:00      0.500000  
RAINFALL         12/16/04   00:00      0.500000  
RAINFALL         12/16/04   01:00      0.000000  
RAINFALL         12/16/04   02:00      0.500000  
RAINFALL         12/16/04   03:00      0.000000  
RAINFALL         12/16/04   04:00      0.000000  
RAINFALL         12/16/04   05:00      0.000000  
RAINFALL         12/16/04   06:00      0.000000  
RAINFALL         12/16/04   07:00      6.000000  
RAINFALL         12/16/04   08:00      0.180000  
RAINFALL         12/16/04   09:00      6.900000  
RAINFALL         12/16/04   10:00      5.920000  
RAINFALL         12/16/04   11:00      1.680000  
RAINFALL         12/16/04   12:00      2.500000  
RAINFALL         12/16/04   13:00      0.820000  
RAINFALL         12/16/04   14:00      0.680000  
RAINFALL         12/16/04   15:00      2.320000  
RAINFALL         12/16/04   16:00      0.680000  
RAINFALL         12/16/04   17:00      1.180000  
RAINFALL         12/16/04   18:00      1.640000  
RAINFALL         12/16/04   19:00      0.000000  
RAINFALL         12/16/04   20:00      0.000000  
RAINFALL         12/16/04   21:00      0.000000  
RAINFALL         12/16/04   22:00      0.000000  
RAINFALL         12/16/04   23:00      0.000000  
RAINFALL         12/17/04   00:00      0.000000  
RAINFALL         12/17/04   01:00      0.000000  
RAINFALL         12/17/04   02:00      0.000000  
RAINFALL         12/17/04   03:00      0.000000  
RAINFALL         12/17/04   04:00      0.000000  
RAINFALL         12/17/04   05:00      0.000000  
RAINFALL         12/17/04   06:00      0.000000  
RAINFALL         12/17/04   07:00      0.000000  
RAINFALL         12/17/04   08:00      0.000000  
RAINFALL         12/17/04   09:00      0.000000  
RAINFALL         12/17/04   10:00      0.000000  
RAINFALL         12/17/04   11:00      0.000000  
RAINFALL         12/17/04   12:00      0.000000  
RAINFALL         12/17/04   13:00      0.000000  
RAINFALL         12/17/04   14:00      0.000000  
RAINFALL         12/17/04   15:00      0.010000  
RAINFALL         12/17/04   16:00      0.020000  
RAINFALL         12/17/04   17:00      0.020000  
RAINFALL         12/17/04   18:00      0.020000  
RAINFALL         12/17/04   19:00      0.020000  
RAINFALL         12/17/04   20:00      0.020000  
RAINFALL         12/17/04   21:00      0.020000  
RAINFALL         12/17/04   22:00      0.020000  
RAINFALL         12/17/04   23:00      0.020000  
RAINFALL         12/18/04   00:00      0.020000  
RAINFALL         12/18/04   01:00      0.020000  
RAINFALL         12/18/04   02:00      0.020000  
RAINFALL         12/18/04   03:00      0.020000  
RAINFALL         12/18/04   04:00      0.020000  
RAINFALL         12/18/04   05:00      0.020000  
RAINFALL         12/18/04   06:00      0.020000  
RAINFALL         12/18/04   07:00      0.020000  
RAINFALL         12/18/04   08:00      0.020000  
RAINFALL         12/18/04   09:00      0.020000  
RAINFALL         12/18/04   10:00      0.020000  
RAINFALL         12/18/04   11:00      0.020000  
RAINFALL         12/18/04   12:00      0.020000  
RAINFALL         12/18/04   13:00      1.180000  
RAINFALL         12/18/04   14:00      1.320000  
RAINFALL         12/18/04   15:00      0.000000  
RAINFALL         12/18/04   16:00      0.000000  
RAINFALL         12/18/04   17:00      0.000000  
RAINFALL         12/18/04   18:00      0.000000  
RAINFALL         12/18/04   19:00      0.000000  
RAINFALL         12/18/04   20:00      0.000000  
RAINFALL         12/18/04   21:00      0.000000  
RAINFALL         12/18/04   22:00      0.000000  
RAINFALL         12/18/04   23:00      0.000000  
RAINFALL         12/19/04   00:00      0.000000  
RAINFALL         12/19/04   01:00      0.000000  
RAINFALL         12/19/04   02:00      0.000000  
RAINFALL         12/19/04   03:00      0.000000  
RAINFALL         12/19/04   04:00      0.000000  
RAINFALL         12/19/04   05:00      0.000000  
RAINFALL         12/19/04   06:00      0.000000  
RAINFALL         12/19/04   07:00      0.000000  
RAINFALL         12/19/04   08:00      0.000000  
RAINFALL         12/19/04   09:00      0.000000  
RAINFALL         12/19/04   10:00      0.000000  
RAINFALL         12/19/04   11:00      0.000000  
RAINFALL         12/19/04   12:00      0.000000  
RAINFALL         12/19/04   13:00      0.000000  
RAINFALL         12/19/04   14:00      0.000000  
RAINFALL         12/19/04   15:00      0.000000  
RAINFALL         12/19/04   16:00      0.000000  
RAINFALL         12/19/04   17:00      0.000000  
RAINFALL         12/19/04   18:00      0.000000  
RAINFALL         12/19/04   19:00      0.000000  
RAINFALL         12/19/04   20:00      0.000000  
RAINFALL         12/19/04   21:00      0.000000  
RAINFALL         12/19/04   22:00      0.000000  
RAINFALL         12/19/04   23:00      0.000000  
RAINFALL         12/20/04   00:00      0.000000  
RAINFALL         12/20/04   01:00      0.000000  
RAINFALL         12/20/04   02:00      0.000000  
RAINFALL         12/20/04   03:00      0.000000  
RAINFALL         12/20/04   04:00      0.000000  
RAINFALL         12/20/04   05:00      0.000000  
RAINFALL         12/20/04   06:00      0.000000  
RAINFALL         12/20/04   07:00      0.000000  
RAINFALL         12/20/04   08:00      0.000000  
RAINFALL         12/20/04   09:00      0.000000  
RAINFALL         12/20/04   10:00      0.000000  
RAINFALL         12/20/04   11:00      0.000000  
RAINFALL         12/20/04   12:00      0.000000  
RAINFALL         12/20/04   13:00      0.000000  
RAINFALL         12/20/04   14:00      0.000000  
RAINFALL         12/20/04   15:00      0.000000  
RAINFALL         12/20/04   16:00      0.000000  
RAINFALL         12/20/04   17:00      0.000000  
RAINFALL         12/20/04   18:00      0.000000  
RAINFALL         12/20/04   19:00      0.000000  
RAINFALL         12/20/04   20:00      0.000000  
RAINFALL         12/20/04   21:00      0.000000  
RAINFALL         12/20/04   22:00      0.000000  
RAINFALL         12/20/04   23:00      0.000000  
RAINFALL         12/21/04   00:00      0.000000  
RAINFALL         12/21/04   01:00      0.000000  
RAINFALL         12/21/04   02:00      0.000000  
RAINFALL         12/21/04   03:00      0.000000  
RAINFALL         12/21/04   04:00      0.000000  
RAINFALL         12/21/04   05:00      0.000000  
RAINFALL         12/21/04   06:00      0.000000  
RAINFALL         12/21/04   07:00      0.000000  
RAINFALL         12/21/04   08:00      0.500000  
RAINFALL         12/21/04   09:00      0.000000  
RAINFALL         12/21/04   10:00      0.000000  
RAINFALL         12/21/04   11:00      0.000000  
RAINFALL         12/21/04   12:00      0.000000  
RAINFALL         12/21/04   13:00      0.000000  
RAINFALL         12/21/04   14:00      0.000000  
RAINFALL         12/21/04   15:00      0.180000  
RAINFALL         12/21/04   16:00      0.820000  
RAINFALL         12/21/04   17:00      0.000000  
RAINFALL         12/21/04   18:00      0.000000  
RAINFALL         12/21/04   19:00      0.000000  
RAINFALL         12/21/04   20:00      0.000000  
RAINFALL         12/21/04   21:00      0.000000  
RAINFALL         12/21/04   22:00      0.000000  
RAINFALL         12/21/04   23:00      0.000000  
RAINFALL         12/22/04   00:00      0.000000  
RAINFALL         12/22/04   01:00      0.000000  
RAINFALL         12/22/04   02:00      0.000000  
RAINFALL         12/22/04   03:00      0.000000  
RAINFALL         12/22/04   04:00      0.000000  
RAINFALL         12/22/04   05:00      0.000000  
RAINFALL         12/22/04   06:00      0.000000  
RAINFALL         12/22/04   07:00      0.000000  
RAINFALL         12/22/04   08:00      0.000000  
RAINFALL         12/22/04   09:00      0.000000  
RAINFALL         12/22/04   10:00      0.000000  
RAINFALL         12/22/04   11:00      0.000000  
RAINFALL         12/22/04   12:00      0.000000  
RAINFALL         12/22/04   13:00      0.000000  
RAINFALL         12/22/04   14:00      0.000000  
RAINFALL         12/22/04   15:00      0.000000  
RAINFALL         12/22/04   16:00      0.000000  
RAINFALL         12/22/04   17:00      0.000000  
RAINFALL         12/22/04   18:00      0.000000  
RAINFALL         12/22/04   19:00      0.000000  
RAINFALL         12/22/04   20:00      0.000000  
RAINFALL         12/22/04   21:00      0.000000  
RAINFALL         12/22/04   22:00      0.000000  
RAINFALL         12/22/04   23:00      0.000000  
RAINFALL         12/23/04   00:00      0.000000  
RAINFALL         12/23/04   01:00      0.000000  
RAINFALL         12/23/04   02:00      0.000000  
RAINFALL         12/23/04   03:00      0.000000  
RAINFALL         12/23/04   04:00      0.000000  
RAINFALL         12/23/04   05:00      0.000000  
RAINFALL         12/23/04   06:00      0.000000  
RAINFALL         12/23/04   07:00      0.000000  
RAINFALL         12/23/04   08:00      0.000000  
RAINFALL         12/23/04   09:00      0.000000  
RAINFALL         12/23/04   10:00      0.000000  
RAINFALL         12/23/04   11:00      0.000000  
RAINFALL         12/23/04   12:00      0.000000  
RAINFALL         12/23/04   13:00      0.000000  
RAINFALL         12/23/04   14:00      0.000000  
RAINFALL         12/23/04   15:00      3.500000  