[TITLE]
;;Project Title/Notes

[OPTIONS]
;;Option             Value
FLOW_UNITS           CMS
INFILTRATION         HORTON
FLOW_ROUTING         DYNWAVE
LINK_OFFSETS         DEPTH
MIN_SLOPE            0
ALLOW_PONDING        NO
SKIP_STEADY_STATE    NO

START_DATE           09/25/2008
START_TIME           00:00:00
REPORT_START_DATE    09/25/2008
REPORT_START_TIME    00:00:00
END_DATE             02/08/2009
END_TIME             12:00:00
SWEEP_START          01/01
SWEEP_END            12/31
DRY_DAYS             0
REPORT_STEP          00:05:00
WET_STEP             00:00:15
DRY_STEP             00:00:30
ROUTING_STEP         0:00:15 

INERTIAL_DAMPING     FULL
NORMAL_FLOW_LIMITED  SLOPE
FORCE_MAIN_EQUATION  D-W
VARIABLE_STEP        0.75
LENGTHENING_STEP     75
MIN_SURFAREA         0
MAX_TRIALS           0
HEAD_TOLERANCE       0
SYS_FLOW_TOL         5
LAT_FLOW_TOL         5
MINIMUM_STEP         0.5
THREADS              1

[EVAPORATION]
;;Data Source    Parameters
;;-------------- ----------------
CONSTANT         0.0
DRY_ONLY         NO

[RAINGAGES]
;;Name           Format    Interval SCF      Source    
;;-------------- --------- ------ ------ ----------
RG-SHEARWATER    INTENSITY 0:15     1.0      TIMESERIES Shearwater-Oct23-Feb20-06
RG-CBCL          VOLUME    0:05     1.0      FILE       "K:\Projects\101001 - Halifax Water Regional Wastewater Functional Plan\Sewer Models\Halifax-PierA_Model\CBCL_Roof_5min_9Sept-17Dec_2008.dat" CBCL_Roof  MM   
RG-MACINTOSH     INTENSITY 0:15     1.0      TIMESERIES Macintosh-Nov24-Feb28-06

[SUBCATCHMENTS]
;;Name           Rain Gage        Outlet           Area     %Imperv  Width    %Slope   CurbLen  SnowPack        
;;-------------- ---------------- ---------------- -------- -------- -------- -------- -------- ----------------
SC10327          RG-CBCL          MH10327          1.91     12.21    129.05   2.0      0        Snow_Pack       
SC10328          RG-CBCL          MH10328          1.29     12.21    129.05   2.0      0        Snow_Pack       
SC10357          RG-CBCL          MH10357          0.91     20       133.894  2.7      0        Snow_Pack       
SC10362          RG-CBCL          MH1062           0.89     20       35       2.7      0        Snow_Pack       
SC10410          RG-CBCL          MH10410          0.92     29.79    163.739  2.0      0        Snow_Pack       
SC1042           RG-CBCL          MH1042           3.18     30       133.894  2.7      0        Snow_Pack       
SC1062           RG-CBCL          MH1062           1.31     1.000    47.434   2.0      0        Snow_Pack       
SC1077           RG-CBCL          MH1077           0.86     38.78    157.885  1.1      0        Snow_Pack       
SC1083           RG-CBCL          MH1083           6.26     22.21    129.05   2.0      0        Snow_Pack       
SC1087           RG-CBCL          MH1087           0.94     22.21    129.05   2.0      0        Snow_Pack       
SC11100          RG-CBCL          MH11100          1.18     63.50    290.08   1.5      0        Snow_Pack       
SC1115           RG-CBCL          MH1115           23.64    20       133.894  2.7      0        Snow_Pack       
SC1130           RG-CBCL          MH1130           1.50     31.87    133.894  2.7      0        Snow_Pack       
SC1161           RG-CBCL          MH1161           4.62     31.87    133.894  2.7      0        Snow_Pack       
SC1265           RG-CBCL          MH1265           11.40    20       133.894  2.7      0        Snow_Pack       
SC1283           RG-CBCL          MH1283           15.42    30       1597.116 2.0      0        Snow_Pack       
SC1296           RG-CBCL          MH1296           15.22    20       133.894  2.7      0        Snow_Pack       
SC1345           RG-CBCL          MH1345           1.27     46.19    144.166  2.2      0        Snow_Pack       
SC1346           RG-CBCL          MH1346           0.65     46.19    144.166  2.2      0        Snow_Pack       
SC1347           RG-CBCL          MH1347           1.53     46.19    144.166  2.2      0        Snow_Pack       
SC1348           RG-CBCL          MH1348           1.72     46.19    144.166  2.2      0        Snow_Pack       
SC1349           RG-CBCL          MH1349           0.52     46.19    144.166  2.2      0        Snow_Pack       
SC1352           RG-CBCL          MH1352           1.64     46.19    144.166  2.2      0        Snow_Pack       
SC1353           RG-CBCL          MH1353           0.69     46.19    144.166  2.2      0        Snow_Pack       
SC1374           RG-CBCL          MH1374           10.61    30       133.894  2.7      0        Snow_Pack       
SC1615           RG-CBCL          MH1615           23.64    20       133.894  2.7      0        Snow_Pack       
SC1657           RG-CBCL          MH1657           2.81     33.80    137.882  4.0      0        Snow_Pack       
SC1701           RG-CBCL          MH1701           31.29    20       133.894  2.7      0        Snow_Pack       
SC1736           RG-CBCL          MH1736           7.07     54.80    551.543  4.0      0        Snow_Pack       
SC1737           RG-CBCL          MH1737           1.58     95       47.434   2.0      0        Snow_Pack       
SC1939           RG-CBCL          MH1939           4.99     20       133.894  2.7      0        Snow_Pack       
SC2063           RG-CBCL          MH2063           3.96     33.80    137.882  4.0      0        Snow_Pack       
SC28532          RG-CBCL          MH28532          1.77     35       47.434   2.0      0        Snow_Pack       
SC5581           RG-CBCL          MH5581           0.92     50.24    194.115  2.6      0        Snow_Pack       
SC5584           RG-CBCL          MH5584           0.73     50.24    194.115  2.6      0        Snow_Pack       
SC5585           RG-CBCL          MH5585           1.18     21.82    264.6    2.0      0        Snow_Pack       
SC5586           RG-CBCL          MH5586           1.02     45.50    120.934  2.0      0        Snow_Pack       
SC563            RG-CBCL          MH563            3.50     10       47.434   2.0      0        Snow_Pack       
SC592            RG-CBCL          MH592            20.13    30.45    767.496  1.5      0        Snow_Pack       
SC593            RG-CBCL          MH593            1.77     63.50    290.08   1.5      0        Snow_Pack       
SC594            RG-CBCL          MH594            1.45     63.50    290.08   1.5      0        Snow_Pack       
SC595            RG-CBCL          MH595            0.66     93.50    290.08   1.5      0                        
SC596            RG-CBCL          MH596            1.96     45.50    290.08   1.5      0        Snow_Pack       
SC597            RG-CBCL          MH597            12       35.50    290.08   1.5      0        Snow_Pack       
SC8009           RG-CBCL          MH8009           0.47     46.19    144.166  2.2      0        Snow_Pack       
SC802            RG-CBCL          MH802            1.66     55.45    203.921  2.0      0        Snow_Pack       
SC810            RG-CBCL          MH810            4.78     30.24    194.115  2.6      0        Snow_Pack       
SC814            RG-CBCL          MH814            2.64     25.24    194.115  2.6      0        Snow_Pack       
SC815            RG-CBCL          MH815_WL_Gauged  0.48     25.24    194.115  2.6      0        Snow_Pack       
SC819            RG-CBCL          MH819            1.47     40.24    194.115  2.6      0        Snow_Pack       
SC821            RG-CBCL          MH821_WL_Gauged  2.32     38.78    157.885  1.1      0        Snow_Pack       
SC822            RG-CBCL          MH822            3.16     38.78    157.885  1.1      0        Snow_Pack       
SC863            RG-CBCL          MH863            10.7     58.20    491.304  2.0      0        Snow_Pack       
SC864            RG-CBCL          MH864            2.30     29.79    163.739  2.0      0        Snow_Pack       
SC865            RG-CBCL          MH865            4.89     29.79    163.739  2.0      0        Snow_Pack       
SC867            RG-CBCL          MH867            0.67     29.79    163.739  2.0      0        Snow_Pack       
SC905            RG-CBCL          MH905            1.03     22.21    129.05   2.0      0        Snow_Pack       
SC907            RG-CBCL          MH907            4.08     20       288.531  2.0      0        Snow_Pack       
SC912            RG-CBCL          MH912            0.71     22.21    129.05   2.0      0        Snow_Pack       
SC913            RG-CBCL          MH913            1.62     48.29    208.471  2.0      0        Snow_Pack       
SC915            RG-CBCL          MH915            1.56     22.21    129.05   2.0      0        Snow_Pack       
SC916            RG-CBCL          MH916            1.84     22.21    129.05   2.0      0        Snow_Pack       
SC917            RG-CBCL          MH917            1.19     12.21    129.05   2.0      0        Snow_Pack       
SC919            RG-CBCL          MH919            1.00     12.21    129.05   2.0      0        Snow_Pack       
SC9412           RG-CBCL          MH9412           0.24     15.24    194.115  2.6      0        Snow_Pack       
SC980            RG-CBCL          MH980-WL_Gauged  1.44     38.78    157.885  1.1      0        Snow_Pack       
SC982            RG-CBCL          MH981            0.31     38.78    157.885  1.1      0        Snow_Pack       
SC983            RG-CBCL          MH983            1.49     38.78    157.885  1.1      0        Snow_Pack       
SC986            RG-CBCL          MH986_WL_Gauged  0.81     38.78    157.885  1.1      0        Snow_Pack       
SC988            RG-CBCL          MH988            1.04     46.19    144.166  2.2      0        Snow_Pack       
SC989            RG-CBCL          MH989            0.85     46.19    144.166  2.2      0        Snow_Pack       
SC994            RG-CBCL          MH994            1.30     46.19    144.166  2.2      0        Snow_Pack       
SC997            RG-CBCL          MH997            0.53     46.19    144.166  2.2      0        Snow_Pack       
SC999            RG-CBCL          MH999            1.49     31.87    133.894  2.7      0        Snow_Pack       

[SUBAREAS]
;;Subcatchment   N-Imperv   N-Perv     S-Imperv   S-Perv     PctZero    RouteTo    PctRouted 
;;-------------- ---------- ---------- ---------- ---------- ---------- ---------- ----------
SC10327          0.02       0.15       0.5        1          25         OUTLET    
SC10328          0.02       0.15       0.5        1          25         OUTLET    
SC10357          0.02       0.15       0.5        1          25         OUTLET    
SC10362          0.02       0.15       0.5        1          25         OUTLET    
SC10410          0.02       0.15       0.5        1          25         OUTLET    
SC1042           0.02       0.15       0.5        1          25         OUTLET    
SC1062           0.02       0.15       0.5        1          25         OUTLET    
SC1077           0.02       0.15       0.5        1          25         OUTLET    
SC1083           0.02       0.15       0.5        1          25         OUTLET    
SC1087           0.02       0.15       0.5        1          25         OUTLET    
SC11100          0.02       0.15       0.5        1          25         OUTLET    
SC1115           0.02       0.15       0.5        1          25         OUTLET    
SC1130           0.02       0.15       0.5        1          25         OUTLET    
SC1161           0.02       0.15       0.5        1          25         OUTLET    
SC1265           0.02       0.15       0.5        1          25         OUTLET    
SC1283           0.02       0.15       0.5        1          25         OUTLET    
SC1296           0.02       0.15       0.5        1          25         OUTLET    
SC1345           0.02       0.15       0.5        1          25         OUTLET    
SC1346           0.02       0.15       0.5        1          25         OUTLET    
SC1347           0.02       0.15       0.5        1          25         OUTLET    
SC1348           0.02       0.15       0.5        1          25         OUTLET    
SC1349           0.02       0.15       0.5        1          25         OUTLET    
SC1352           0.02       0.15       0.5        1          25         OUTLET    
SC1353           0.02       0.15       0.5        1          25         OUTLET    
SC1374           0.02       0.15       0.5        1          25         OUTLET    
SC1615           0.02       0.15       0.5        1          25         OUTLET    
SC1657           0.02       0.15       0.5        1          25         OUTLET    
SC1701           0.02       0.15       0.5        1          25         OUTLET    
SC1736           0.02       0.15       0.5        1          25         OUTLET    
SC1737           0.02       0.15       0.5        1          25         OUTLET    
SC1939           0.02       0.15       0.5        1          25         OUTLET    
SC2063           0.02       0.15       0.5        1          25         OUTLET    
SC28532          0.02       0.15       0.5        1          25         OUTLET    
SC5581           0.02       0.15       0.5        1          25         OUTLET    
SC5584           0.02       0.15       0.5        1          25         OUTLET    
SC5585           0.02       0.15       0.5        1          25         OUTLET    
SC5586           0.02       0.15       0.5        1          25         OUTLET    
SC563            0.02       0.15       0.5        1          25         OUTLET    
SC592            0.02       0.15       0.5        1          25         OUTLET    
SC593            0.02       0.15       0.5        1          25         OUTLET    
SC594            0.02       0.15       0.5        1          25         OUTLET    
SC595            0.02       0.15       0.5        1          25         OUTLET    
SC596            0.02       0.15       0.5        1          25         OUTLET    
SC597            0.02       0.15       0.5        1          25         OUTLET    
SC8009           0.02       0.15       0.5        1          25         OUTLET    
SC802            0.02       0.15       0.5        1          25         OUTLET    
SC810            0.02       0.15       0.5        1          25         OUTLET    
SC814            0.02       0.15       0.5        1          25         OUTLET    
SC815            0.02       0.15       0.5        1          25         OUTLET    
SC819            0.02       0.15       0.5        1          25         OUTLET    
SC821            0.02       0.15       0.5        1          25         OUTLET    
SC822            0.02       0.15       0.5        1          25         OUTLET    
SC863            0.02       0.15       0.5        1          25         OUTLET    
SC864            0.02       0.15       0.5        1          25         OUTLET    
SC865            0.02       0.15       0.5        1          25         OUTLET    
SC867            0.02       0.15       0.5        1          25         OUTLET    
SC905            0.02       0.15       0.5        1          25         OUTLET    
SC907            0.02       0.15       0.5        1          25         OUTLET    
SC912            0.02       0.15       0.5        1          25         OUTLET    
SC913            0.02       0.15       0.5        1          25         OUTLET    
SC915            0.02       0.15       0.5        1          25         OUTLET    
SC916            0.02       0.15       0.5        1          25         OUTLET    
SC917            0.02       0.15       0.5        1          25         OUTLET    
SC919            0.02       0.15       0.5        1          25         OUTLET    
SC9412           0.02       0.15       0.5        1          25         OUTLET    
SC980            0.02       0.15       0.5        1          25         OUTLET    
SC982            0.02       0.15       0.5        1          25         OUTLET    
SC983            0.02       0.15       0.5        1          25         OUTLET    
SC986            0.02       0.15       0.5        1          25         OUTLET    
SC988            0.02       0.15       0.5        1          25         OUTLET    
SC989            0.02       0.15       0.5        1          25         OUTLET    
SC994            0.02       0.15       0.5        1          25         OUTLET    
SC997            0.02       0.15       0.5        1          25         OUTLET    
SC999            0.02       0.15       0.5        1          25         OUTLET    

[INFILTRATION]
;;Subcatchment   MaxRate    MinRate    Decay      DryTime    MaxInfil  
;;-------------- ---------- ---------- ---------- ---------- ----------
SC10327          3          2          0.1        12         0         
SC10328          3          2          0.1        12         0         
SC10357          5          4          .1         12         0         
SC10362          5          4          .1         12         0         
SC10410          3          2          0.1        12         0         
SC1042           5          4          .1         12         0         
SC1062           5          4          .1         12         0         
SC1077           3          2          0.1        12         0         
SC1083           5          4          .1         12         0         
SC1087           5          4          .1         12         0         
SC11100          3          2          0.1        12         0         
SC1115           5          4          .1         12         0         
SC1130           5          4          .1         12         0         
SC1161           5          4          .1         12         0         
SC1265           5          4          .1         12         0         
SC1283           5          4          .1         12         0         
SC1296           3          2          0.1        12         0         
SC1345           3          2          0.1        12         0         
SC1346           5          4          .1         12         0         
SC1347           3          2          0.1        12         0         
SC1348           3          2          0.1        12         0         
SC1349           5          4          .1         12         0         
SC1352           3          2          0.1        12         0         
SC1353           5          4          .1         12         0         
SC1374           5          4          .1         12         0         
SC1615           5          4          .1         12         0         
SC1657           3          2          0.1        12         0         
SC1701           5          4          .1         12         0         
SC1736           3          2          0.1        12         0         
SC1737           5          4          .1         12         0         
SC1939           5          4          .1         12         0         
SC2063           3          2          0.1        12         0         
SC28532          3          2          0.1        12         0         
SC5581           3          2          0.1        12         0         
SC5584           3          2          0.1        12         0         
SC5585           3          2          0.1        12         0         
SC5586           3          2          0.1        12         0         
SC563            3          2          0.1        12         0         
SC592            3          2          0.1        12         0         
SC593            3          2          0.1        12         0         
SC594            3          2          0.1        12         0         
SC595            3          2          0.1        12         0         
SC596            3          2          0.1        12         0         
SC597            3          2          0.1        12         0         
SC8009           5          4          .1         12         0         
SC802            3          2          0.1        12         0         
SC810            3          2          0.1        12         0         
SC814            3          2          0.1        12         0         
SC815            3          2          0.1        12         0         
SC819            3          2          0.1        12         0         
SC821            3          2          0.1        12         0         
SC822            3          2          0.1        12         0         
SC863            3          2          0.1        12         0         
SC864            3          2          0.1        12         0         
SC865            3          2          0.1        12         0         
SC867            3          2          0.1        12         0         
SC905            3          2          0.1        12         0         
SC907            3          2          0.1        12         0         
SC912            3          2          0.1        12         0         
SC913            3          2          0.1        12         0         
SC915            3          2          0.1        12         0         
SC916            3          2          0.1        12         0         
SC917            3          2          0.1        12         0         
SC919            3          2          0.1        12         0         
SC9412           3          2          0.1        12         0         
SC980            3          2          0.1        12         0         
SC982            3          2          0.1        12         0         
SC983            3          2          0.1        12         0         
SC986            5          4          .1         12         0         
SC988            5          4          .1         12         0         
SC989            5          4          .1         12         0         
SC994            3          2          0.1        12         0         
SC997            5          4          .1         12         0         
SC999            5          4          .1         12         0         

[SNOWPACKS]
;;Name           Surface    Parameters
;;-------------- ---------- ----------
Snow_Pack        PLOWABLE   0.001      0.001      1          0.10       1          1          0.0       
Snow_Pack        IMPERVIOUS 0.1        0.5        1          0.10       1          1          100       
Snow_Pack        PERVIOUS   0.1        0.5        1          0.10       1          1          100       
Snow_Pack        REMOVAL    10000      0.0        0.0        0.0        0.0        0.0        

[JUNCTIONS]
;;Name           Elevation  MaxDepth   InitDepth  SurDepth   Aponded   
;;-------------- ---------- ---------- ---------- ---------- ----------
MH1000           .93        5          .00        0          0         
MH1021           10.06      3.05       .00        0          0         
MH10299          7.08       11.22      .00        0          0         
MH10327          24.02      2.98       .00        0          0         
MH10328          23.89      3.12       .00        0          0         
MH10349          31.355     3.41       0          0          0         
MH10350          27.55      4.45       .00        0          0         
MH10351          27.23      3.98       .00        0          0         
MH10352          28.65      6.34       .00        0          0         
MH10353          28.71      6.25       .00        0          0         
MH10357          29.14      5.79       .00        0          0         
MH10406          22.25      3.75       .00        0          0         
MH10407          21.35      2.81       .00        0          0         
MH10410          23.00      3.00       .00        0          0         
MH1042           6.61       11.13      .00        0          0         
MH1043           9.43       9.59       .00        0          0         
MH1044           10.55      9.42       .00        0          0         
MH1045           12.58      5.37       .00        0          0         
MH1052           3.00       7.83       .00        0          0         
MH1062           24.024     2.54       0          0          0         
MH1063           22.92      3.59       .00        0          0         
MH1071           22.64      2.99       .00        0          0         
MH1072           21.53      2.84       .00        0          0         
MH1077           20.37      3.14       .00        0          0         
MH1083           21.95      2.61       0          0          0         
MH1085           25.49      2.84       .00        0          0         
MH1086           23.13      3.57       .00        0          0         
MH1087           23.08      3.02       .00        0          0         
MH1088           26.43      3.51       .00        0          0         
MH11100          15.00      3.00       .00        0          0         
MH1115           33.35      2.75       0          0          0         
MH1124           27.18      3.91       .00        0          0         
MH1130           28.30      4.95       .00        0          0         
MH1161           15.50      2.50       .00        0          0         
MH1265           39.58      3.37       0          0          0         
MH1272           26.18      2.25       0          0          0         
MH1283           20.93      3.06       .00        0          0         
MH1284           17.11      5.34       .00        0          0         
MH1296           24.08      3.31       0          0          0         
MH1304           21.96      3.02       .00        0          0         
MH1345           11.83      3.33       .00        0          0         
MH1346           10.34      2.50       .00        0          0         
MH1347           9.39       3.55       .00        0          0         
MH1348           8.17       2.64       .00        0          0         
MH1349           8.29       2.48       .00        0          0         
MH1350           4.81       4.13       .00        0          0         
MH1351           5.95       2.97       .00        0          0         
MH1352           3.57       3.74       .00        0          0         
MH1353           4.82       2.37       .00        0          0         
MH1374           37.28      3.28       0          0          0         
MH1615           45.41      4.52       0          0          0         
MH1655           16.00      3.80       .00        0          0         
MH1657           18.84      2.42       .00        0          0         
MH1658           19.45      2.20       .00        0          0         
MH1701           29.96      2.22       0          0          0         
MH1736           14.03      3.32       .00        0          0         
MH1737           14.94      2.20       .00        0          0         
MH1939           44.34      3.84       0          0          0         
MH2063           20.39      2.72       .00        0          0         
MH2065           19.46      3.15       .00        0          0         
MH28532          23.35      2.65       .00        0          0         
MH5580           8.68       4.02       .00        0          0         
MH5581           8.30       3.70       .00        0          0         
MH5582           7.83       3.69       .00        0          0         
MH5583           4.33       6.00       .00        0          0         
MH5584           3          5.5        .00        0          0         
MH5585           .10        3.98       .00        0          0         
MH563            23.00      3.00       .00        0          0         
MH592            16.24      3.17       .00        0          0         
MH593            15.80      3.11       .00        0          0         
MH594            15.45      2.96       .00        0          0         
MH595            14.59      3.26       .00        0          0         
MH596            14.01      3.41       .00        0          0         
MH597            16.81      2.19       .00        0          0         
MH8009           12.84      2.27       .00        0          0         
MH802            15.08      3.45       .00        0          0         
MH809            10.64      3.51       .00        0          0         
MH810            10.57      3.44       .00        0          0         
MH814            10.04      3.47       .00        0          0         
MH815_WL_Gauged  9.46       3.89       .00        0          0         
MH816            9.38       3.64       .00        0          0         
MH819            10.16      2.84       .00        0          0         
MH821_WL_Gauged  13.41      3.32       .00        0          0         
MH822            11.88      2.87       .00        0          0         
MH863            23.19      3.29       .00        0          0         
MH864            22.87      4.39       .00        0          0         
MH865            22.98      4.28       .00        0          0         
MH866            22.22      3.03       .00        0          0         
MH867            22.07      2.84       .00        0          0         
MH868            21.87      2.77       .00        0          0         
MH869            21.33      2.81       .00        0          0         
MH902            17.55      3.06       .00        0          0         
MH905            17.19      3.02       .00        0          0         
MH906            18.08      2.96       .00        0          0         
MH907            18.73      3.40       .00        0          0         
MH911            19.86      2.99       .00        0          0         
MH912            20.97      2.53       .00        0          0         
MH913            19.80      3.44       .00        0          0         
MH914            20.19      3.17       .00        0          0         
MH915            20.91      2.92       .00        0          0         
MH916            21.30      2.97       .00        0          0         
MH917            21.95      4.05       .00        0          0         