[TITLE]
Scenario Run :  NEW_HOPE_NW_LAKE_N_EXAMPLE_100YR

[OPTIONS]
;Option and Files Scenario Set: BASE, Base Simulation Options
FLOW_UNITS	CFS
INFILTRATION	HORTON
FLOW_ROUTING	DYNWAVE
ALLOW_PONDING	NO
DRY_DAYS	5.000000
SKIP_STEADY_STATE 	NO
IGNORE_RAINFALL	NO
IGNORE_SNOWMELT	NO
IGNORE_GROUNDWATER	NO
IGNORE_QUALITY	NO
FORCE_MAIN_EQUATION	H-W
LINK_OFFSETS	DEPTH
MIN_SLOPE	0.000000
START_DATE	01/01/2016
START_TIME	00:00
END_DATE	01/03/2016
END_TIME	00:00
REPORT_START_DATE	01/01/2016
REPORT_START_TIME	00:00
SWEEP_START	01/01
SWEEP_END	12/31
WET_STEP	00:01:00
DRY_STEP	24:00:00
ROUTING_STEP	10
REPORT_STEP	00:01:00
INERTIAL_DAMPING	NONE
VARIABLE_STEP	0.750000
MINIMUM_STEP	0.000000
LENGTHENING_STEP	5
MIN_SURFAREA	0.000000
NORMAL_FLOW_LIMITED	BOTH
MAX_TRIALS	8
HEAD_TOLERANCE	0.001000

[FILES]

[RAINGAGES]
NEWRAINGAGE	CUMULATIVE	0.100000	1.000000	TIMESERIES	NEW_HOPE_NW_LAKE_N_EXAMPLE_100YR		

[HYDROGRAPHS]

[TEMPERATURE]

[ADJUSTMENTS]

[SUBCATCHMENTS]
ST1?#1	NEWRAINGAGE	ST1?	2.420000	58.000000	1.000000	1.000000	0.000000
ST2325#1	NEWRAINGAGE	ST2325	2.498000	43.000000	1.000000	1.000000	0.000000
ST2327#1	NEWRAINGAGE	ST2327	3.735000	43.000000	1.000000	1.000000	0.000000
ST2336#1	NEWRAINGAGE	ST2336	6.937000	12.000000	1.000000	1.000000	0.000000
ST2337#1	NEWRAINGAGE	ST2337	0.886000	22.000000	270.000000	0.040000	0.000000
ST2338#1	NEWRAINGAGE	ST2338	0.478000	46.000000	1.000000	1.000000	0.000000
ST2339#1	NEWRAINGAGE	ST2339	1.625000	53.000000	1.000000	1.000000	0.000000
ST2367#1	NEWRAINGAGE	ST2367	0.783000	45.000000	1.000000	1.000000	0.000000
ST2368#1	NEWRAINGAGE	ST2368	1.733000	42.000000	1.000000	1.000000	0.000000
ST2369#1	NEWRAINGAGE	ST2369	1.036000	54.000000	1.000000	1.000000	0.000000
ST2?#1	NEWRAINGAGE	ST2?	2.398000	57.000000	1.000000	1.000000	0.000000
ST366#1	NEWRAINGAGE	ST366	2.543000	22.000000	1.000000	1.000000	0.000000

[SUBAREAS]
ST1?#1	0.100000	0.001000	0.050000	0.050000	25.000000	OUTLET
ST2325#1	0.100000	0.001000	0.050000	0.050000	25.000000	OUTLET
ST2327#1	0.100000	0.001000	0.050000	0.050000	25.000000	OUTLET
ST2336#1	0.100000	0.001000	0.050000	0.050000	25.000000	OUTLET
ST2337#1	0.100000	0.001000	0.050000	0.050000	25.000000	OUTLET
ST2338#1	0.100000	0.001000	0.050000	0.050000	25.000000	OUTLET
ST2339#1	0.100000	0.001000	0.050000	0.050000	25.000000	OUTLET
ST2367#1	0.100000	0.001000	0.050000	0.050000	25.000000	OUTLET
ST2368#1	0.100000	0.001000	0.050000	0.050000	25.000000	OUTLET
ST2369#1	0.100000	0.001000	0.050000	0.050000	25.000000	OUTLET
ST2?#1	0.100000	0.001000	0.050000	0.050000	25.000000	OUTLET
ST366#1	0.100000	0.001000	0.050000	0.050000	25.000000	OUTLET

[INFILTRATION]

[AQUIFERS]

[GROUNDWATER]

[GWF]

[SNOWPACKS]

[JUNCTIONS]
ST1?	897.020000	2.190000	0.000000	0.000000	0.000000
ST2325	895.910000	5.290000	0.000000	0.000000	0.000000
ST2326	893.580000	7.620000	0.000000	0.000000	0.000000
ST2327	897.170000	4.030000	0.000000	0.000000	0.000000
ST2328	896.170000	5.030000	0.000000	0.000000	0.000000
ST2337	888.040000	3.460000	0.000000	0.000000	0.000000
ST2338	894.900000	3.100000	0.000000	0.000000	0.000000
ST2339	894.200000	3.820000	0.000000	0.000000	0.000000
ST2367	892.800000	3.300000	0.000000	0.000000	0.000000
ST2368	893.100000	3.000000	0.000000	0.000000	0.000000
ST2369	884.860000	10.940000	0.000000	0.000000	0.000000
ST2428	887.250000	10.850000	0.000000	0.000000	0.000000
ST2429	893.100000	7.200000	0.000000	0.000000	0.000000
ST2430	885.610000	11.490000	0.000000	0.000000	0.000000
ST2439	884.900000	11.400000	0.000000	0.000000	0.000000
ST2?	896.730000	2.390000	0.000000	0.000000	0.000000
ST366	895.700000	4.910000	0.000000	0.000000	0.000000

[OUTFALLS]
ST634	884.190000	FREE	NO

[DIVIDERS]

[STORAGE]
ST2336	888.050000	3.950000	0.000000	TABULAR	ST2336_ST	0.000000	0.000000

[CONDUITS]
334.1	ST2336	ST2337	5.000000	0.013000	0.000000	0.000000	0.000000	0.000000
LINK103	ST1?	ST2?	30.500000	0.013000	0.000000	0.030000	0.000000	0.000000
STP1952	ST2326	ST2336	162.000000	0.013000	0.000000	2.210000	0.000000	0.000000
STP1953	ST2328	ST2326	34.500000	0.013000	0.000000	0.010000	0.000000	0.000000
STP2144	ST2339	ST2428	26.000000	0.013000	0.000000	4.850000	0.000000	0.000000
STP2145	ST2338	ST2428	8.000000	0.013000	0.000000	4.850000	0.000000	0.000000
STP2146	ST2367	ST2439	12.000000	0.013000	0.000000	5.700000	0.000000	0.000000
STP2147	ST2368	ST2439	30.000000	0.013000	0.000000	4.300000	0.000000	0.000000
STP2148	ST2369	ST634	120.000000	0.013000	0.000000	0.000000	0.000000	0.000000
STP2149	ST2439	ST2369	35.000000	0.013000	0.000000	0.000000	0.000000	0.000000
STP2150	ST2430	ST2439	117.000000	0.013000	0.000000	0.230000	0.000000	0.000000
STP2153	ST2429	ST2430	167.000000	0.013000	0.000000	0.310000	0.000000	0.000000
STP2154	ST2428	ST2430	76.000000	0.013000	0.000000	0.200000	0.000000	0.000000
STP510	ST2?	ST366	126.500000	0.013000	0.000000	0.000000	0.000000	0.000000
STP511	ST366	ST2429	10.000000	0.013000	0.000000	1.800000	0.000000	0.000000
STP512	ST2325	ST2326	10.500000	0.013000	0.000000	0.660000	0.000000	0.000000
STP513	ST2327	ST2328	11.500000	0.013000	0.000000	0.140000	0.000000	0.000000
STP514	ST2337	ST2428	262.600000	0.013000	0.000000	0.000000	0.000000	0.000000

[PUMPS]

[ORIFICES]
INLET	ST2336	ST2337	BOTTOM	-888.050000	1.000000	NO

[WEIRS]

[XSECTIONS]
334.1	CIRCULAR	1.750000	0.000100	0.000000	0.000000	1	0
LINK103	CIRCULAR	1.000000	0.000100	0.000000	0.000000	1	0
STP1952	CIRCULAR	1.500000	0.000100	0.000000	0.000000	1	0
STP1953	CIRCULAR	1.500000	0.000100	0.000000	0.000000	1	0
STP2144	CIRCULAR	1.000000	0.000100	0.000000	0.000000	1	0
STP2145	CIRCULAR	1.000000	0.000100	0.000000	0.000000	1	0
STP2146	CIRCULAR	1.000000	0.000100	0.000000	0.000000	1	0
STP2147	CIRCULAR	1.000000	0.000100	0.000000	0.000000	1	0
STP2148	CIRCULAR	2.500000	0.000100	0.000000	0.000000	1	0
STP2149	CIRCULAR	2.500000	0.000100	0.000000	0.000000	1	0
STP2150	CIRCULAR	2.000000	0.000100	0.000000	0.000000	1	0
STP2153	CIRCULAR	1.500000	0.000100	0.000000	0.000000	1	0
STP2154	CIRCULAR	1.750000	0.000100	0.000000	0.000000	1	0
STP510	CIRCULAR	1.000000	0.000100	0.000000	0.000000	1	0
STP511	CIRCULAR	1.500000	0.000100	0.000000	0.000000	1	0
STP512	CIRCULAR	1.250000	0.000100	0.000000	0.000000	1	0
STP513	CIRCULAR	1.250000	0.000100	0.000000	0.000000	1	0
STP514	CIRCULAR	1.750000	0.000100	0.000000	0.000000	1	0
INLET	CIRCULAR	1.999490	0.000000	0.000000	0.000000

[TRANSECTS]

[LOSSES]
334.1	0.000000	0.000000	0.000000	NO	0.000000
LINK103	0.000000	0.000000	0.000000	NO	0.000000
STP1952	0.000000	0.000000	0.000000	NO	0.000000
STP1953	0.000000	0.000000	0.000000	NO	0.000000
STP2144	0.000000	0.000000	0.000000	NO	0.000000
STP2145	0.000000	0.000000	0.000000	NO	0.000000
STP2146	0.000000	0.000000	0.000000	NO	0.000000
STP2147	0.000000	0.000000	0.000000	NO	0.000000
STP2148	0.000000	0.000000	0.000000	NO	0.000000
STP2149	0.000000	0.000000	0.000000	NO	0.000000
STP2150	0.000000	0.000000	0.000000	NO	0.000000
STP2153	0.000000	0.000000	0.000000	NO	0.000000
STP2154	0.000000	0.000000	0.000000	NO	0.000000
STP510	0.000000	0.000000	0.000000	NO	0.000000
STP511	0.000000	0.000000	0.000000	NO	0.000000
STP512	0.000000	0.000000	0.000000	NO	0.000000
STP513	0.000000	0.000000	0.000000	NO	0.000000
STP514	0.000000	0.000000	0.000000	NO	0.000000

[CONTROLS]

[POLLUTANTS]

[LANDUSES]

[COVERAGES]

[BUILDUP]

[WASHOFF]

[TREATMENT]

[INFLOWS]

[DWF]

[RDII]

[LOADINGS]

[CURVES]
; 
ST2336_ST	STORAGE	0.000000	52272.000000
ST2336_ST	2.000000	87120.000000
ST2336_ST	4.000000	148104.000000

[TIMESERIES]
NEW_HOPE_NW_LAKE_N_EXAMPLE_100YR	0.000000	0.000000
NEW_HOPE_NW_LAKE_N_EXAMPLE_100YR	0.100000	0.001970
NEW_HOPE_NW_LAKE_N_EXAMPLE_100YR	0.200000	0.004096
NEW_HOPE_NW_LAKE_N_EXAMPLE_100YR	0.300000	0.006354
NEW_HOPE_NW_LAKE_N_EXAMPLE_100YR	0.400000	0.008782
NEW_HOPE_NW_LAKE_N_EXAMPLE_100YR	0.500000	0.011291
NEW_HOPE_NW_LAKE_N_EXAMPLE_100YR	0.600000	0.014022
NEW_HOPE_NW_LAKE_N_EXAMPLE_100YR	0.700000	0.016900
NEW_HOPE_NW_LAKE_N_EXAMPLE_100YR	0.800000	0.019852
NEW_HOPE_NW_LAKE_N_EXAMPLE_100YR	0.900000	0.023026
NEW_HOPE_NW_LAKE_N_EXAMPLE_100YR	1.000000	0.026273
NEW_HOPE_NW_LAKE_N_EXAMPLE_100YR	1.100000	0.029741
NEW_HOPE_NW_LAKE_N_EXAMPLE_100YR	1.200000	0.033284
NEW_HOPE_NW_LAKE_N_EXAMPLE_100YR	1.300000	0.036974
NEW_HOPE_NW_LAKE_N_EXAMPLE_100YR	1.400000	0.040885
NEW_HOPE_NW_LAKE_N_EXAMPLE_100YR	1.500000	0.044870
NEW_HOPE_NW_LAKE_N_EXAMPLE_100YR	1.600000	0.049077
NEW_HOPE_NW_LAKE_N_EXAMPLE_100YR	1.700000	0.053357
NEW_HOPE_NW_LAKE_N_EXAMPLE_100YR	1.800000	0.057785
NEW_HOPE_NW_LAKE_N_EXAMPLE_100YR	1.900000	0.062361
NEW_HOPE_NW_LAKE_N_EXAMPLE_100YR	2.000000	0.067158
NEW_HOPE_NW_LAKE_N_EXAMPLE_100YR	2.100000	0.072029
NEW_HOPE_NW_LAKE_N_EXAMPLE_100YR	2.200000	0.077047
NEW_HOPE_NW_LAKE_N_EXAMPLE_100YR	2.300000	0.082213
NEW_HOPE_NW_LAKE_N_EXAMPLE_100YR	2.400000	0.087527
NEW_HOPE_NW_LAKE_N_EXAMPLE_100YR	2.500000	0.092988
NEW_HOPE_NW_LAKE_N_EXAMPLE_100YR	2.600000	0.098597
NEW_HOPE_NW_LAKE_N_EXAMPLE_100YR	2.700000	0.104353
NEW_HOPE_NW_LAKE_N_EXAMPLE_100YR	2.800000	0.110257
NEW_HOPE_NW_LAKE_N_EXAMPLE_100YR	2.900000	0.116309
NEW_HOPE_NW_LAKE_N_EXAMPLE_100YR	3.000000	0.122508
NEW_HOPE_NW_LAKE_N_EXAMPLE_100YR	3.100000	0.128855
NEW_HOPE_NW_LAKE_N_EXAMPLE_100YR	3.200000	0.135349
NEW_HOPE_NW_LAKE_N_EXAMPLE_100YR	3.300000	0.141991
NEW_HOPE_NW_LAKE_N_EXAMPLE_100YR	3.400000	0.148781
NEW_HOPE_NW_LAKE_N_EXAMPLE_100YR	3.500000	0.155644
NEW_HOPE_NW_LAKE_N_EXAMPLE_100YR	3.600000	0.162729
NEW_HOPE_NW_LAKE_N_EXAMPLE_100YR	3.700000	0.169961
NEW_HOPE_NW_LAKE_N_EXAMPLE_100YR	3.800000	0.177341
NEW_HOPE_NW_LAKE_N_EXAMPLE_100YR	3.900000	0.184795
NEW_HOPE_NW_LAKE_N_EXAMPLE_100YR	4.000000	0.192470
NEW_HOPE_NW_LAKE_N_EXAMPLE_100YR	4.100000	0.200293
NEW_HOPE_NW_LAKE_N_EXAMPLE_100YR	4.200000	0.208190
NEW_HOPE_NW_LAKE_N_EXAMPLE_100YR	4.300000	0.216308
NEW_HOPE_NW_LAKE_N_EXAMPLE_100YR	4.400000	0.224500
NEW_HOPE_NW_LAKE_N_EXAMPLE_100YR	4.500000	0.232913
NEW_HOPE_NW_LAKE_N_EXAMPLE_100YR	4.600000	0.241400
NEW_HOPE_NW_LAKE_N_EXAMPLE_100YR	4.700000	0.250108
NEW_HOPE_NW_LAKE_N_EXAMPLE_100YR	4.800000	0.258890
NEW_HOPE_NW_LAKE_N_EXAMPLE_100YR	4.900000	0.267894
NEW_HOPE_NW_LAKE_N_EXAMPLE_100YR	5.000000	0.276971
NEW_HOPE_NW_LAKE_N_EXAMPLE_100YR	5.100000	0.286196
NEW_HOPE_NW_LAKE_N_EXAMPLE_100YR	5.200000	0.295643
NEW_HOPE_NW_LAKE_N_EXAMPLE_100YR	5.300000	0.305163
NEW_HOPE_NW_LAKE_N_EXAMPLE_100YR	5.400000	0.314831
NEW_HOPE_NW_LAKE_N_EXAMPLE_100YR	5.500000	0.324646
NEW_HOPE_NW_LAKE_N_EXAMPLE_100YR	5.600000	0.334683
NEW_HOPE_NW_LAKE_N_EXAMPLE_100YR	5.700000	0.344794
NEW_HOPE_NW_LAKE_N_EXAMPLE_100YR	5.800000	0.355052
NEW_HOPE_NW_LAKE_N_EXAMPLE_100YR	5.900000	0.365458
NEW_HOPE_NW_LAKE_N_EXAMPLE_100YR	6.000000	0.376011
NEW_HOPE_NW_LAKE_N_EXAMPLE_100YR	6.100000	0.386712
NEW_HOPE_NW_LAKE_N_EXAMPLE_100YR	6.200000	0.397561
NEW_HOPE_NW_LAKE_N_EXAMPLE_100YR	6.300000	0.408557
NEW_HOPE_NW_LAKE_N_EXAMPLE_100YR	6.400000	0.419701
NEW_HOPE_NW_LAKE_N_EXAMPLE_100YR	6.500000	0.430992
NEW_HOPE_NW_LAKE_N_EXAMPLE_100YR	6.600000	0.442431
NEW_HOPE_NW_LAKE_N_EXAMPLE_100YR	6.700000	0.454018
NEW_HOPE_NW_LAKE_N_EXAMPLE_100YR	6.800000	0.465752
NEW_HOPE_NW_LAKE_N_EXAMPLE_100YR	6.900000	0.477634
NEW_HOPE_NW_LAKE_N_EXAMPLE_100YR	7.000000	0.489663
NEW_HOPE_NW_LAKE_N_EXAMPLE_100YR	7.100000	0.501766
NEW_HOPE_NW_LAKE_N_EXAMPLE_100YR	7.200000	0.514091
NEW_HOPE_NW_LAKE_N_EXAMPLE_100YR	7.300000	0.526563
NEW_HOPE_NW_LAKE_N_EXAMPLE_100YR	7.400000	0.539183
NEW_HOPE_NW_LAKE_N_EXAMPLE_100YR	7.500000	0.551876
NEW_HOPE_NW_LAKE_N_EXAMPLE_100YR	7.600000	0.564791
NEW_HOPE_NW_LAKE_N_EXAMPLE_100YR	7.700000	0.577854
NEW_HOPE_NW_LAKE_N_EXAMPLE_100YR	7.800000	0.590990
NEW_HOPE_NW_LAKE_N_EXAMPLE_100YR	7.900000	0.604348
NEW_HOPE_NW_LAKE_N_EXAMPLE_100YR	8.000000	0.617780
NEW_HOPE_NW_LAKE_N_EXAMPLE_100YR	8.100000	0.631433
NEW_HOPE_NW_LAKE_N_EXAMPLE_100YR	8.200000	0.645160
NEW_HOPE_NW_LAKE_N_EXAMPLE_100YR	8.300000	0.659108
NEW_HOPE_NW_LAKE_N_EXAMPLE_100YR	8.400000	0.673130
NEW_HOPE_NW_LAKE_N_EXAMPLE_100YR	8.500000	0.687373
NEW_HOPE_NW_LAKE_N_EXAMPLE_100YR	8.600000	0.701690
NEW_HOPE_NW_LAKE_N_EXAMPLE_100YR	8.700000	0.716155
NEW_HOPE_NW_LAKE_N_EXAMPLE_100YR	8.800000	0.730841
NEW_HOPE_NW_LAKE_N_EXAMPLE_100YR	8.900000	0.745601
NEW_HOPE_NW_LAKE_N_EXAMPLE_100YR	9.000000	0.760509
NEW_HOPE_NW_LAKE_N_EXAMPLE_100YR	9.100000	0.784346
NEW_HOPE_NW_LAKE_N_EXAMPLE_100YR	9.200000	0.808553
NEW_HOPE_NW_LAKE_N_EXAMPLE_100YR	9.300000	0.833128
NEW_HOPE_NW_LAKE_N_EXAMPLE_100YR	9.400000	0.857999
NEW_HOPE_NW_LAKE_N_EXAMPLE_100YR	9.500000	0.883165
NEW_HOPE_NW_LAKE_N_EXAMPLE_100YR	9.600000	0.908773
NEW_HOPE_NW_LAKE_N_EXAMPLE_100YR	9.700000	0.934603
NEW_HOPE_NW_LAKE_N_EXAMPLE_100YR	9.800000	0.960876
NEW_HOPE_NW_LAKE_N_EXAMPLE_100YR	9.900000	0.987444
NEW_HOPE_NW_LAKE_N_EXAMPLE_100YR	10.000000	1.014307
NEW_HOPE_NW_LAKE_N_EXAMPLE_100YR	10.100000	1.041539
NEW_HOPE_NW_LAKE_N_EXAMPLE_100YR	10.200000	1.069141
NEW_HOPE_NW_LAKE_N_EXAMPLE_100YR	10.300000	1.097111
NEW_HOPE_NW_LAKE_N_EXAMPLE_100YR	10.400000	1.125302
NEW_HOPE_NW_LAKE_N_EXAMPLE_100YR	10.500000	1.153937
NEW_HOPE_NW_LAKE_N_EXAMPLE_100YR	10.600000	1.196446
NEW_HOPE_NW_LAKE_N_EXAMPLE_100YR	10.700000	1.244489
NEW_HOPE_NW_LAKE_N_EXAMPLE_100YR	10.800000	1.298216
NEW_HOPE_NW_LAKE_N_EXAMPLE_100YR	10.900000	1.357477
NEW_HOPE_NW_LAKE_N_EXAMPLE_100YR	11.000000	1.422274
NEW_HOPE_NW_LAKE_N_EXAMPLE_100YR	11.100000	1.492679
NEW_HOPE_NW_LAKE_N_EXAMPLE_100YR	11.200000	1.568693
NEW_HOPE_NW_LAKE_N_EXAMPLE_100YR	11.300000	1.650316
NEW_HOPE_NW_LAKE_N_EXAMPLE_100YR	11.400000	1.737473
NEW_HOPE_NW_LAKE_N_EXAMPLE_100YR	11.500000	1.830240
NEW_HOPE_NW_LAKE_N_EXAMPLE_100YR	11.600000	1.965294
NEW_HOPE_NW_LAKE_N_EXAMPLE_100YR	11.700000	2.144776
NEW_HOPE_NW_LAKE_N_EXAMPLE_100YR	11.800000	2.394441
NEW_HOPE_NW_LAKE_N_EXAMPLE_100YR	11.900000	2.748681
NEW_HOPE_NW_LAKE_N_EXAMPLE_100YR	12.000000	3.416128
NEW_HOPE_NW_LAKE_N_EXAMPLE_100YR	12.100000	4.631319
NEW_HOPE_NW_LAKE_N_EXAMPLE_100YR	12.200000	4.985559
NEW_HOPE_NW_LAKE_N_EXAMPLE_100YR	12.300000	5.235224
NEW_HOPE_NW_LAKE_N_EXAMPLE_100YR	12.400000	5.414706
NEW_HOPE_NW_LAKE_N_EXAMPLE_100YR	12.500000	5.549760
NEW_HOPE_NW_LAKE_N_EXAMPLE_100YR	12.600000	5.642527
NEW_HOPE_NW_LAKE_N_EXAMPLE_100YR	12.700000	5.729684
NEW_HOPE_NW_LAKE_N_EXAMPLE_100YR	12.800000	5.811307
NEW_HOPE_NW_LAKE_N_EXAMPLE_100YR	12.900000	5.887321
NEW_HOPE_NW_LAKE_N_EXAMPLE_100YR	13.000000	5.957726
NEW_HOPE_NW_LAKE_N_EXAMPLE_100YR	13.100000	6.022523
NEW_HOPE_NW_LAKE_N_EXAMPLE_100YR	13.200000	6.081784
NEW_HOPE_NW_LAKE_N_EXAMPLE_100YR	13.300000	6.135511
NEW_HOPE_NW_LAKE_N_EXAMPLE_100YR	13.400000	6.183554
NEW_HOPE_NW_LAKE_N_EXAMPLE_100YR	13.500000	6.226063
NEW_HOPE_NW_LAKE_N_EXAMPLE_100YR	13.600000	6.254698
NEW_HOPE_NW_LAKE_N_EXAMPLE_100YR	13.700000	6.282889
NEW_HOPE_NW_LAKE_N_EXAMPLE_100YR	13.800000	6.310859
NEW_HOPE_NW_LAKE_N_EXAMPLE_100YR	13.900000	6.338461
NEW_HOPE_NW_LAKE_N_EXAMPLE_100YR	14.000000	6.365693
NEW_HOPE_NW_LAKE_N_EXAMPLE_100YR	14.100000	6.392556
NEW_HOPE_NW_LAKE_N_EXAMPLE_100YR	14.200000	6.419124
NEW_HOPE_NW_LAKE_N_EXAMPLE_100YR	14.300000	6.445397
NEW_HOPE_NW_LAKE_N_EXAMPLE_100YR	14.400000	6.471227
NEW_HOPE_NW_LAKE_N_EXAMPLE_100YR	14.500000	6.496835
NEW_HOPE_NW_LAKE_N_EXAMPLE_100YR	14.600000	6.522001
NEW_HOPE_NW_LAKE_N_EXAMPLE_100YR	14.700000	6.546872
NEW_HOPE_NW_LAKE_N_EXAMPLE_100YR	14.800000	6.571447
NEW_HOPE_NW_LAKE_N_EXAMPLE_100YR	14.900000	6.595654
NEW_HOPE_NW_LAKE_N_EXAMPLE_100YR	15.000000	6.619491
NEW_HOPE_NW_LAKE_N_EXAMPLE_100YR	15.100000	6.634399
NEW_HOPE_NW_LAKE_N_EXAMPLE_100YR	15.200000	6.649159
NEW_HOPE_NW_LAKE_N_EXAMPLE_100YR	15.300000	6.663845
NEW_HOPE_NW_LAKE_N_EXAMPLE_100YR	15.400000	6.678310
NEW_HOPE_NW_LAKE_N_EXAMPLE_100YR	15.500000	6.692627
NEW_HOPE_NW_LAKE_N_EXAMPLE_100YR	15.600000	6.706870
NEW_HOPE_NW_LAKE_N_EXAMPLE_100YR	15.700000	6.720892
NEW_HOPE_NW_LAKE_N_EXAMPLE_100YR	15.800000	6.734840
NEW_HOPE_NW_LAKE_N_EXAMPLE_100YR	15.900000	6.748567
NEW_HOPE_NW_LAKE_N_EXAMPLE_100YR	16.000000	6.762220
NEW_HOPE_NW_LAKE_N_EXAMPLE_100YR	16.100000	6.775652
NEW_HOPE_NW_LAKE_N_EXAMPLE_100YR	16.200000	6.789010
NEW_HOPE_NW_LAKE_N_EXAMPLE_100YR	16.300000	6.802146
NEW_HOPE_NW_LAKE_N_EXAMPLE_100YR	16.400000	6.815209
NEW_HOPE_NW_LAKE_N_EXAMPLE_100YR	16.500000	6.828124
NEW_HOPE_NW_LAKE_N_EXAMPLE_100YR	16.600000	6.840817
NEW_HOPE_NW_LAKE_N_EXAMPLE_100YR	16.700000	6.853437
NEW_HOPE_NW_LAKE_N_EXAMPLE_100YR	16.800000	6.865909
NEW_HOPE_NW_LAKE_N_EXAMPLE_100YR	16.900000	6.878234
NEW_HOPE_NW_LAKE_N_EXAMPLE_100YR	17.000000	6.890337
NEW_HOPE_NW_LAKE_N_EXAMPLE_100YR	17.100000	6.902366
NEW_HOPE_NW_LAKE_N_EXAMPLE_100YR	17.200000	6.914248
NEW_HOPE_NW_LAKE_N_EXAMPLE_100YR	17.300000	6.925982
NEW_HOPE_NW_LAKE_N_EXAMPLE_100YR	17.400000	6.937569
NEW_HOPE_NW_LAKE_N_EXAMPLE_100YR	17.500000	6.949008
NEW_HOPE_NW_LAKE_N_EXAMPLE_100YR	17.600000	6.960299
NEW_HOPE_NW_LAKE_N_EXAMPLE_100YR	17.700000	6.971443
NEW_HOPE_NW_LAKE_N_EXAMPLE_100YR	17.800000	6.982439
NEW_HOPE_NW_LAKE_N_EXAMPLE_100YR	17.900000	6.993288
NEW_HOPE_NW_LAKE_N_EXAMPLE_100YR	18.000000	7.003989
NEW_HOPE_NW_LAKE_N_EXAMPLE_100YR	18.100000	7.014542
NEW_HOPE_NW_LAKE_N_EXAMPLE_100YR	18.200000	7.024948
NEW_HOPE_NW_LAKE_N_EXAMPLE_100YR	18.300000	7.035206
NEW_HOPE_NW_LAKE_N_EXAMPLE_100YR	18.400000	7.045317
NEW_HOPE_NW_LAKE_N_EXAMPLE_100YR	18.500000	7.055354
NEW_HOPE_NW_LAKE_N_EXAMPLE_100YR	18.600000	7.065169
NEW_HOPE_NW_LAKE_N_EXAMPLE_100YR	18.700000	7.074837
NEW_HOPE_NW_LAKE_N_EXAMPLE_100YR	18.800000	7.084357
NEW_HOPE_NW_LAKE_N_EXAMPLE_100YR	18.900000	7.093804
NEW_HOPE_NW_LAKE_N_EXAMPLE_100YR	19.000000	7.103029
NEW_HOPE_NW_LAKE_N_EXAMPLE_100YR	19.100000	7.112106
NEW_HOPE_NW_LAKE_N_EXAMPLE_100YR	19.200000	7.121110
NEW_HOPE_NW_LAKE_N_EXAMPLE_100YR	19.300000	7.129892
NEW_HOPE_NW_LAKE_N_EXAMPLE_100YR	19.400000	7.138600
NEW_HOPE_NW_LAKE_N_EXAMPLE_100YR	19.500000	7.147087
NEW_HOPE_NW_LAKE_N_EXAMPLE_100YR	19.600000	7.155500
NEW_HOPE_NW_LAKE_N_EXAMPLE_100YR	19.700000	7.163692
NEW_HOPE_NW_LAKE_N_EXAMPLE_100YR	19.800000	7.171810
NEW_HOPE_NW_LAKE_N_EXAMPLE_100YR	19.900000	7.179707
NEW_HOPE_NW_LAKE_N_EXAMPLE_100YR	20.000000	7.187530
NEW_HOPE_NW_LAKE_N_EXAMPLE_100YR	20.100000	7.195205
NEW_HOPE_NW_LAKE_N_EXAMPLE_100YR	20.200000	7.202659
NEW_HOPE_NW_LAKE_N_EXAMPLE_100YR	20.300000	7.210039
NEW_HOPE_NW_LAKE_N_EXAMPLE_100YR	20.400000	7.217271
NEW_HOPE_NW_LAKE_N_EXAMPLE_100YR	20.500000	7.224356
NEW_HOPE_NW_LAKE_N_EXAMPLE_100YR	20.600000	7.231219
NEW_HOPE_NW_LAKE_N_EXAMPLE_100YR	20.700000	7.238009
NEW_HOPE_NW_LAKE_N_EXAMPLE_100YR	20.800000	7.244651
NEW_HOPE_NW_LAKE_N_EXAMPLE_100YR	20.900000	7.251145
NEW_HOPE_NW_LAKE_N_EXAMPLE_100YR	21.000000	7.257492
NEW_HOPE_NW_LAKE_N_EXAMPLE_100YR	21.100000	7.263691
NEW_HOPE_NW_LAKE_N_EXAMPLE_100YR	21.200000	7.269743
NEW_HOPE_NW_LAKE_N_EXAMPLE_100YR	21.300000	7.275647
NEW_HOPE_NW_LAKE_N_EXAMPLE_100YR	21.400000	7.281403
NEW_HOPE_NW_LAKE_N_EXAMPLE_100YR	21.500000	7.287012
NEW_HOPE_NW_LAKE_N_EXAMPLE_100YR	21.600000	7.292473
NEW_HOPE_NW_LAKE_N_EXAMPLE_100YR	21.700000	7.297787
NEW_HOPE_NW_LAKE_N_EXAMPLE_100YR	21.800000	7.302953
NEW_HOPE_NW_LAKE_N_EXAMPLE_100YR	21.900000	7.307971
NEW_HOPE_NW_LAKE_N_EXAMPLE_100YR	22.000000	7.312842
NEW_HOPE_NW_LAKE_N_EXAMPLE_100YR	22.100000	7.317639
NEW_HOPE_NW_LAKE_N_EXAMPLE_100YR	22.200000	7.322215
NEW_HOPE_NW_LAKE_N_EXAMPLE_100YR	22.300000	7.326643
NEW_HOPE_NW_LAKE_N_EXAMPLE_100YR	22.400000	7.330923
NEW_HOPE_NW_LAKE_N_EXAMPLE_100YR	22.500000	7.335130
NEW_HOPE_NW_LAKE_N_EXAMPLE_100YR	22.600000	7.339115
NEW_HOPE_NW_LAKE_N_EXAMPLE_100YR	22.700000	7.343026
NEW_HOPE_NW_LAKE_N_EXAMPLE_100YR	22.800000	7.346716
NEW_HOPE_NW_LAKE_N_EXAMPLE_100YR	22.900000	7.350259
NEW_HOPE_NW_LAKE_N_EXAMPLE_100YR	23.000000	7.353727
NEW_HOPE_NW_LAKE_N_EXAMPLE_100YR	23.100000	7.356974
NEW_HOPE_NW_LAKE_N_EXAMPLE_100YR	23.200000	7.360148
NEW_HOPE_NW_LAKE_N_EXAMPLE_100YR	23.300000	7.363100
NEW_HOPE_NW_LAKE_N_EXAMPLE_100YR	23.400000	7.365978
NEW_HOPE_NW_LAKE_N_EXAMPLE_100YR	23.500000	7.368709
NEW_HOPE_NW_LAKE_N_EXAMPLE_100YR	23.600000	7.371218
NEW_HOPE_NW_LAKE_N_EXAMPLE_100YR	23.700000	7.373646
NEW_HOPE_NW_LAKE_N_EXAMPLE_100YR	23.800000	7.375904
NEW_HOPE_NW_LAKE_N_EXAMPLE_100YR	23.900000	7.378030
NEW_HOPE_NW_LAKE_N_EXAMPLE_100YR	24.000000	7.380000

NEW_HOPE_NW_LAKE_N_EXAMPLE_10YR	0.000000	0.000000
NEW_HOPE_NW_LAKE_N_EXAMPLE_10YR	0.100000	0.000267
NEW_HOPE_NW_LAKE_N_EXAMPLE_10YR	0.200000	0.000555
NEW_HOPE_NW_LAKE_N_EXAMPLE_10YR	0.300000	0.000861
NEW_HOPE_NW_LAKE_N_EXAMPLE_10YR	0.400000	0.001190
NEW_HOPE_NW_LAKE_N_EXAMPLE_10YR	0.500000	0.001530
NEW_HOPE_NW_LAKE_N_EXAMPLE_10YR	0.600000	0.001900
NEW_HOPE_NW_LAKE_N_EXAMPLE_10YR	0.700000	0.002290
NEW_HOPE_NW_LAKE_N_EXAMPLE_10YR	0.800000	0.002690
NEW_HOPE_NW_LAKE_N_EXAMPLE_10YR	0.900000	0.003120
NEW_HOPE_NW_LAKE_N_EXAMPLE_10YR	1.000000	0.003560
NEW_HOPE_NW_LAKE_N_EXAMPLE_10YR	1.100000	0.004030
NEW_HOPE_NW_LAKE_N_EXAMPLE_10YR	1.200000	0.004510
NEW_HOPE_NW_LAKE_N_EXAMPLE_10YR	1.300000	0.005010
NEW_HOPE_NW_LAKE_N_EXAMPLE_10YR	1.400000	0.005540
NEW_HOPE_NW_LAKE_N_EXAMPLE_10YR	1.500000	0.006080
NEW_HOPE_NW_LAKE_N_EXAMPLE_10YR	1.600000	0.006650
NEW_HOPE_NW_LAKE_N_EXAMPLE_10YR	1.700000	0.007230
NEW_HOPE_NW_LAKE_N_EXAMPLE_10YR	1.800000	0.007830
NEW_HOPE_NW_LAKE_N_EXAMPLE_10YR	1.900000	0.008450
NEW_HOPE_NW_LAKE_N_EXAMPLE_10YR	2.000000	0.009100
NEW_HOPE_NW_LAKE_N_EXAMPLE_10YR	2.100000	0.009760
NEW_HOPE_NW_LAKE_N_EXAMPLE_10YR	2.200000	0.010440
NEW_HOPE_NW_LAKE_N_EXAMPLE_10YR	2.300000	0.011140
NEW_HOPE_NW_LAKE_N_EXAMPLE_10YR	2.400000	0.011860
NEW_HOPE_NW_LAKE_N_EXAMPLE_10YR	2.500000	0.012600
NEW_HOPE_NW_LAKE_N_EXAMPLE_10YR	2.600000	0.013360
NEW_HOPE_NW_LAKE_N_EXAMPLE_10YR	2.700000	0.014140
NEW_HOPE_NW_LAKE_N_EXAMPLE_10YR	2.800000	0.014940
NEW_HOPE_NW_LAKE_N_EXAMPLE_10YR	2.900000	0.015760
NEW_HOPE_NW_LAKE_N_EXAMPLE_10YR	3.000000	0.016600
NEW_HOPE_NW_LAKE_N_EXAMPLE_10YR	3.100000	0.017460
NEW_HOPE_NW_LAKE_N_EXAMPLE_10YR	3.200000	0.018340
NEW_HOPE_NW_LAKE_N_EXAMPLE_10YR	3.300000	0.019240
NEW_HOPE_NW_LAKE_N_EXAMPLE_10YR	3.400000	0.020160
NEW_HOPE_NW_LAKE_N_EXAMPLE_10YR	3.500000	0.021090
NEW_HOPE_NW_LAKE_N_EXAMPLE_10YR	3.600000	0.022050
NEW_HOPE_NW_LAKE_N_EXAMPLE_10YR	3.700000	0.023030
NEW_HOPE_NW_LAKE_N_EXAMPLE_10YR	3.800000	0.024030
NEW_HOPE_NW_LAKE_N_EXAMPLE_10YR	3.900000	0.025040
NEW_HOPE_NW_LAKE_N_EXAMPLE_10YR	4.000000	0.026080
NEW_HOPE_NW_LAKE_N_EXAMPLE_10YR	4.100000	0.027140
NEW_HOPE_NW_LAKE_N_EXAMPLE_10YR	4.200000	0.028210
NEW_HOPE_NW_LAKE_N_EXAMPLE_10YR	4.300000	0.029310
NEW_HOPE_NW_LAKE_N_EXAMPLE_10YR	4.400000	0.030420
NEW_HOPE_NW_LAKE_N_EXAMPLE_10YR	4.500000	0.031560
NEW_HOPE_NW_LAKE_N_EXAMPLE_10YR	4.600000	0.032710
NEW_HOPE_NW_LAKE_N_EXAMPLE_10YR	4.700000	0.033890
NEW_HOPE_NW_LAKE_N_EXAMPLE_10YR	4.800000	0.035080
NEW_HOPE_NW_LAKE_N_EXAMPLE_10YR	4.900000	0.036300
NEW_HOPE_NW_LAKE_N_EXAMPLE_10YR	5.000000	0.037530
NEW_HOPE_NW_LAKE_N_EXAMPLE_10YR	5.100000	0.038780
NEW_HOPE_NW_LAKE_N_EXAMPLE_10YR	5.200000	0.040060
NEW_HOPE_NW_LAKE_N_EXAMPLE_10YR	5.300000	0.041350
NEW_HOPE_NW_LAKE_N_EXAMPLE_10YR	5.400000	0.042660
NEW_HOPE_NW_LAKE_N_EXAMPLE_10YR	5.500000	0.043990
NEW_HOPE_NW_LAKE_N_EXAMPLE_10YR	5.600000	0.045350
NEW_HOPE_NW_LAKE_N_EXAMPLE_10YR	5.700000	0.046720
NEW_HOPE_NW_LAKE_N_EXAMPLE_10YR	5.800000	0.048110
NEW_HOPE_NW_LAKE_N_EXAMPLE_10YR	5.900000	0.049520
NEW_HOPE_NW_LAKE_N_EXAMPLE_10YR	6.000000	0.050950
NEW_HOPE_NW_LAKE_N_EXAMPLE_10YR	6.100000	0.052400
NEW_HOPE_NW_LAKE_N_EXAMPLE_10YR	6.200000	0.053870
NEW_HOPE_NW_LAKE_N_EXAMPLE_10YR	6.300000	0.055360
NEW_HOPE_NW_LAKE_N_EXAMPLE_10YR	6.400000	0.056870
NEW_HOPE_NW_LAKE_N_EXAMPLE_10YR	6.500000	0.058400
NEW_HOPE_NW_LAKE_N_EXAMPLE_10YR	6.600000	0.059950
NEW_HOPE_NW_LAKE_N_EXAMPLE_10YR	6.700000	0.061520
NEW_HOPE_NW_LAKE_N_EXAMPLE_10YR	6.800000	0.063110
NEW_HOPE_NW_LAKE_N_EXAMPLE_10YR	6.900000	0.064720
NEW_HOPE_NW_LAKE_N_EXAMPLE_10YR	7.000000	0.066350
NEW_HOPE_NW_LAKE_N_EXAMPLE_10YR	7.100000	0.067990
NEW_HOPE_NW_LAKE_N_EXAMPLE_10YR	7.200000	0.069660
NEW_HOPE_NW_LAKE_N_EXAMPLE_10YR	7.300000	0.071350
NEW_HOPE_NW_LAKE_N_EXAMPLE_10YR	7.400000	0.073060
NEW_HOPE_NW_LAKE_N_EXAMPLE_10YR	7.500000	0.074780
NEW_HOPE_NW_LAKE_N_EXAMPLE_10YR	7.600000	0.076530
NEW_HOPE_NW_LAKE_N_EXAMPLE_10YR	7.700000	0.078300
NEW_HOPE_NW_LAKE_N_EXAMPLE_10YR	7.800000	0.080080
NEW_HOPE_NW_LAKE_N_EXAMPLE_10YR	7.900000	0.081890
NEW_HOPE_NW_LAKE_N_EXAMPLE_10YR	8.000000	0.083710
NEW_HOPE_NW_LAKE_N_EXAMPLE_10YR	8.100000	0.085560
NEW_HOPE_NW_LAKE_N_EXAMPLE_10YR	8.200000	0.087420
NEW_HOPE_NW_LAKE_N_EXAMPLE_10YR	8.300000	0.089310
NEW_HOPE_NW_LAKE_N_EXAMPLE_10YR	8.400000	0.091210
NEW_HOPE_NW_LAKE_N_EXAMPLE_10YR	8.500000	0.093140
NEW_HOPE_NW_LAKE_N_EXAMPLE_10YR	8.600000	0.095080
NEW_HOPE_NW_LAKE_N_EXAMPLE_10YR	8.700000	0.097040
NEW_HOPE_NW_LAKE_N_EXAMPLE_10YR	8.800000	0.099030
NEW_HOPE_NW_LAKE_N_EXAMPLE_10YR	8.900000	0.101030
NEW_HOPE_NW_LAKE_N_EXAMPLE_10YR	9.000000	0.103050
NEW_HOPE_NW_LAKE_N_EXAMPLE_10YR	9.100000	0.106280
NEW_HOPE_NW_LAKE_N_EXAMPLE_10YR	9.200000	0.109560
NEW_HOPE_NW_LAKE_N_EXAMPLE_10YR	9.300000	0.112890
NEW_HOPE_NW_LAKE_N_EXAMPLE_10YR	9.400000	0.116260
NEW_HOPE_NW_LAKE_N_EXAMPLE_10YR	9.500000	0.119670
NEW_HOPE_NW_LAKE_N_EXAMPLE_10YR	9.600000	0.123140
NEW_HOPE_NW_LAKE_N_EXAMPLE_10YR	9.700000	0.126640
NEW_HOPE_NW_LAKE_N_EXAMPLE_10YR	9.800000	0.130200
NEW_HOPE_NW_LAKE_N_EXAMPLE_10YR	9.900000	0.133800
NEW_HOPE_NW_LAKE_N_EXAMPLE_10YR	10.000000	0.137440
NEW_HOPE_NW_LAKE_N_EXAMPLE_10YR	10.100000	0.141130
NEW_HOPE_NW_LAKE_N_EXAMPLE_10YR	10.200000	0.144870
NEW_HOPE_NW_LAKE_N_EXAMPLE_10YR	10.300000	0.148660
NEW_HOPE_NW_LAKE_N_EXAMPLE_10YR	10.400000	0.152480
NEW_HOPE_NW_LAKE_N_EXAMPLE_10YR	10.500000	0.156360
NEW_HOPE_NW_LAKE_N_EXAMPLE_10YR	10.600000	0.162120
NEW_HOPE_NW_LAKE_N_EXAMPLE_10YR	10.700000	0.168630
NEW_HOPE_NW_LAKE_N_EXAMPLE_10YR	10.800000	0.175910
NEW_HOPE_NW_LAKE_N_EXAMPLE_10YR	10.900000	0.183940
NEW_HOPE_NW_LAKE_N_EXAMPLE_10YR	11.000000	0.192720
NEW_HOPE_NW_LAKE_N_EXAMPLE_10YR	11.100000	0.202260
NEW_HOPE_NW_LAKE_N_EXAMPLE_10YR	11.200000	0.212560
NEW_HOPE_NW_LAKE_N_EXAMPLE_10YR	11.300000	0.223620
NEW_HOPE_NW_LAKE_N_EXAMPLE_10YR	11.400000	0.235430
NEW_HOPE_NW_LAKE_N_EXAMPLE_10YR	11.500000	0.248000
NEW_HOPE_NW_LAKE_N_EXAMPLE_10YR	11.600000	0.266300
NEW_HOPE_NW_LAKE_N_EXAMPLE_10YR	11.700000	0.290620
NEW_HOPE_NW_LAKE_N_EXAMPLE_10YR	11.800000	0.324450
NEW_HOPE_NW_LAKE_N_EXAMPLE_10YR	11.900000	0.372450
NEW_HOPE_NW_LAKE_N_EXAMPLE_10YR	12.000000	0.462890
NEW_HOPE_NW_LAKE_N_EXAMPLE_10YR	12.100000	0.627550
NEW_HOPE_NW_LAKE_N_EXAMPLE_10YR	12.200000	0.675550
NEW_HOPE_NW_LAKE_N_EXAMPLE_10YR	12.300000	0.709380
NEW_HOPE_NW_LAKE_N_EXAMPLE_10YR	12.400000	0.733700
NEW_HOPE_NW_LAKE_N_EXAMPLE_10YR	12.500000	0.752000
NEW_HOPE_NW_LAKE_N_EXAMPLE_10YR	12.600000	0.764570
NEW_HOPE_NW_LAKE_N_EXAMPLE_10YR	12.700000	0.776380
NEW_HOPE_NW_LAKE_N_EXAMPLE_10YR	12.800000	0.787440
NEW_HOPE_NW_LAKE_N_EXAMPLE_10YR	12.900000	0.797740
NEW_HOPE_NW_LAKE_N_EXAMPLE_10YR	13.000000	0.807280
NEW_HOPE_NW_LAKE_N_EXAMPLE_10YR	13.100000	0.816060
NEW_HOPE_NW_LAKE_N_EXAMPLE_10YR	13.200000	0.824090
NEW_HOPE_NW_LAKE_N_EXAMPLE_10YR	13.300000	0.831370
NEW_HOPE_NW_LAKE_N_EXAMPLE_10YR	13.400000	0.837880
NEW_HOPE_NW_LAKE_N_EXAMPLE_10YR	13.500000	0.843640
NEW_HOPE_NW_LAKE_N_EXAMPLE_10YR	13.600000	0.847520
NEW_HOPE_NW_LAKE_N_EXAMPLE_10YR	13.700000	0.851340
NEW_HOPE_NW_LAKE_N_EXAMPLE_10YR	13.800000	0.855130
NEW_HOPE_NW_LAKE_N_EXAMPLE_10YR	13.900000	0.858870
NEW_HOPE_NW_LAKE_N_EXAMPLE_10YR	14.000000	0.862560
NEW_HOPE_NW_LAKE_N_EXAMPLE_10YR	14.100000	0.866200
NEW_HOPE_NW_LAKE_N_EXAMPLE_10YR	14.200000	0.869800
NEW_HOPE_NW_LAKE_N_EXAMPLE_10YR	14.300000	0.873360
NEW_HOPE_NW_LAKE_N_EXAMPLE_10YR	14.400000	0.876860
NEW_HOPE_NW_LAKE_N_EXAMPLE_10YR	14.500000	0.880330
NEW_HOPE_NW_LAKE_N_EXAMPLE_10YR	14.600000	0.883740
NEW_HOPE_NW_LAKE_N_EXAMPLE_10YR	14.700000	0.887110
NEW_HOPE_NW_LAKE_N_EXAMPLE_10YR	14.800000	0.890440
NEW_HOPE_NW_LAKE_N_EXAMPLE_10YR	14.900000	0.893720
NEW_HOPE_NW_LAKE_N_EXAMPLE_10YR	15.000000	0.896950
NEW_HOPE_NW_LAKE_N_EXAMPLE_10YR	15.100000	0.898970
NEW_HOPE_NW_LAKE_N_EXAMPLE_10YR	15.200000	0.900970
NEW_HOPE_NW_LAKE_N_EXAMPLE_10YR	15.300000	0.902960
NEW_HOPE_NW_LAKE_N_EXAMPLE_10YR	15.400000	0.904920
NEW_HOPE_NW_LAKE_N_EXAMPLE_10YR	15.500000	0.906860
NEW_HOPE_NW_LAKE_N_EXAMPLE_10YR	15.600000	0.908790
NEW_HOPE_NW_LAKE_N_EXAMPLE_10YR	15.700000	0.910690
NEW_HOPE_NW_LAKE_N_EXAMPLE_10YR	15.800000	0.912580
NEW_HOPE_NW_LAKE_N_EXAMPLE_10YR	15.900000	0.914440
NEW_HOPE_NW_LAKE_N_EXAMPLE_10YR	16.000000	0.916290
NEW_HOPE_NW_LAKE_N_EXAMPLE_10YR	16.100000	0.918110
NEW_HOPE_NW_LAKE_N_EXAMPLE_10YR	16.200000	0.919920
NEW_HOPE_NW_LAKE_N_EXAMPLE_10YR	16.300000	0.921700
NEW_HOPE_NW_LAKE_N_EXAMPLE_10YR	16.400000	0.923470
NEW_HOPE_NW_LAKE_N_EXAMPLE_10YR	16.500000	0.925220
NEW_HOPE_NW_LAKE_N_EXAMPLE_10YR	16.600000	0.926940
NEW_HOPE_NW_LAKE_N_EXAMPLE_10YR	16.700000	0.928650
NEW_HOPE_NW_LAKE_N_EXAMPLE_10YR	16.800000	0.930340
NEW_HOPE_NW_LAKE_N_EXAMPLE_10YR	16.900000	0.932010
NEW_HOPE_NW_LAKE_N_EXAMPLE_10YR	17.000000	0.933650
NEW_HOPE_NW_LAKE_N_EXAMPLE_10YR	17.100000	0.935280
NEW_HOPE_NW_LAKE_N_EXAMPLE_10YR	17.200000	0.936890
NEW_HOPE_NW_LAKE_N_EXAMPLE_10YR	17.300000	0.938480
NEW_HOPE_NW_LAKE_N_EXAMPLE_10YR	17.400000	0.940050
NEW_HOPE_NW_LAKE_N_EXAMPLE_10YR	17.500000	0.941600
NEW_HOPE_NW_LAKE_N_EXAMPLE_10YR	17.600000	0.943130
NEW_HOPE_NW_LAKE_N_EXAMPLE_10YR	17.700000	0.944640
NEW_HOPE_NW_LAKE_N_EXAMPLE_10YR	17.800000	0.946130
NEW_HOPE_NW_LAKE_N_EXAMPLE_10YR	17.900000	0.947600
NEW_HOPE_NW_LAKE_N_EXAMPLE_10YR	18.000000	0.949050
NEW_HOPE_NW_LAKE_N_EXAMPLE_10YR	18.100000	0.950480
NEW_HOPE_NW_LAKE_N_EXAMPLE_10YR	18.200000	0.951890
NEW_HOPE_NW_LAKE_N_EXAMPLE_10YR	18.300000	0.953280
NEW_HOPE_NW_LAKE_N_EXAMPLE_10YR	18.400000	0.954650
NEW_HOPE_NW_LAKE_N_EXAMPLE_10YR	18.500000	0.956010
NEW_HOPE_NW_LAKE_N_EXAMPLE_10YR	18.600000	0.957340
NEW_HOPE_NW_LAKE_N_EXAMPLE_10YR	18.700000	0.958650
NEW_HOPE_NW_LAKE_N_EXAMPLE_10YR	18.800000	0.959940
NEW_HOPE_NW_LAKE_N_EXAMPLE_10YR	18.900000	0.961220
NEW_HOPE_NW_LAKE_N_EXAMPLE_10YR	19.000000	0.962470
NEW_HOPE_NW_LAKE_N_EXAMPLE_10YR	19.100000	0.963700
NEW_HOPE_NW_LAKE_N_EXAMPLE_10YR	19.200000	0.964920
NEW_HOPE_NW_LAKE_N_EXAMPLE_10YR	19.300000	0.966110
NEW_HOPE_NW_LAKE_N_EXAMPLE_10YR	19.400000	0.967290
NEW_HOPE_NW_LAKE_N_EXAMPLE_10YR	19.500000	0.968440
NEW_HOPE_NW_LAKE_N_EXAMPLE_10YR	19.600000	0.969580
NEW_HOPE_NW_LAKE_N_EXAMPLE_10YR	19.700000	0.970690
NEW_HOPE_NW_LAKE_N_EXAMPLE_10YR	19.800000	0.971790
NEW_HOPE_NW_LAKE_N_EXAMPLE_10YR	19.900000	0.972860
NEW_HOPE_NW_LAKE_N_EXAMPLE_10YR	20.000000	0.973920