[TITLE]
;;Project Title/Notes
Scenario Run :  SCN-38G
SCENARIO philosopy:
DataSets are for full network (ie incls both NW and NE)
Facilities used to swtich off things (rather than having to set data val=zero). ie Network is Visible

[OPTIONS]
;;Option             Value
FLOW_UNITS           LPS
INFILTRATION         HORTON
FLOW_ROUTING         DYNWAVE
LINK_OFFSETS         DEPTH
MIN_SLOPE            0
ALLOW_PONDING        NO
SKIP_STEADY_STATE    NO

IGNORE_SNOWMELT      YES
IGNORE_GROUNDWATER   YES
IGNORE_QUALITY       YES
START_DATE           08/22/2008
START_TIME           00:00:00
REPORT_START_DATE    08/22/2008
REPORT_START_TIME    01:00:00
END_DATE             08/23/2008
END_TIME             23:00:00
SWEEP_START          01/01
SWEEP_END            12/31
DRY_DAYS             5.000000
REPORT_STEP          00:01:00
WET_STEP             00:10:00
DRY_STEP             00:20:00
ROUTING_STEP         0:00:01 

INERTIAL_DAMPING     NONE
NORMAL_FLOW_LIMITED  BOTH
FORCE_MAIN_EQUATION  D-W
VARIABLE_STEP        0.75
LENGTHENING_STEP     10
MIN_SURFAREA         1.000000
MAX_TRIALS           10
HEAD_TOLERANCE       0.001000
SYS_FLOW_TOL         5
LAT_FLOW_TOL         5
MINIMUM_STEP         0
THREADS              1

[EVAPORATION]
;;Data Source    Parameters
;;-------------- ----------------
CONSTANT         0.000000
DRY_ONLY         NO

[RAINGAGES]
;;Name           Format    Interval SCF      Source    
;;-------------- --------- ------ ------ ----------
; Beehive Raingage
RAINGAGE-3       VOLUME    1.0      1.000000 TIMESERIES TIMESERI-D2     
; GPurkisss Raingage
RAINGAGE-5       VOLUME    1.0      1.000000 TIMESERIES TIMESERI-D2     
; GColeman Raingage
RAINGAGE-7       VOLUME    1.0      1.000000 TIMESERIES TIMESERI-D2     
; GNelson Raingage
RAINGAGE-9       VOLUME    1.0      1.000000 TIMESERIES TIMESERI-D2     

[JUNCTIONS]
;;Name           Elevation  MaxDepth   InitDepth  SurDepth   Aponded   
;;-------------- ---------- ---------- ---------- ---------- ----------
; Sewer Node
1025             15.750000  1.500000   0.000000   0.000000   0.000000  
; Sewer Node
1029             15.090000  1.490000   0.000000   0.000000   0.000000  
; Sewer Node
1032             14.400000  1.500000   0.000000   0.000000   0.000000  
; Sewer Node
1033             14.320000  1.500000   0.000000   0.000000   0.000000  
; Sewer Node
1035             14.103000  2.500000   0.000000   0.000000   0.000000  
; Sewer Node
1037             10.973000  3.600000   0.000000   5.000000   0.000000  
; Sewer Node
1038             10.973000  3.600000   0.000000   5.000000   0.000000  
; Sewer Node
1039             12.013000  2.600000   0.000000   5.000000   0.000000  
; Sewer Node
1040             12.013000  2.600000   0.000000   5.000000   0.000000  
; Sewer Node
1041             12.822000  2.300000   0.000000   0.000000   0.000000  
; Sewer Node
1042             12.822000  2.300000   0.000000   0.000000   0.000000  
; Sewer Node
1043             12.859000  2.683000   0.000000   0.000000   0.000000  
; Sewer Node
1044             12.859000  2.683000   0.000000   0.000000   0.000000  
; Sewer Node
1049             14.200000  0.700000   0.000000   0.000000   0.000000  
; Sewer Node
1051             12.775000  1.000000   0.000000   0.000000   0.000000  
; Sewer Node
1057             12.200000  2.500000   0.000000   0.000000   0.000000  
; Sewer Node
1058             14.458000  2.786000   0.000000   0.000000   0.000000  
; Sewer Node
; Depth value given - HMW 12 JUL 2010
1063             15.730000  1.000000   0.000000   0.000000   0.000000  
; Sewer Node
; Depth value given - HMW 12 JUL 2010
1082             15.420000  1.500000   0.000000   0.000000   0.000000  
; Sewer Node
1093             17.735000  1.000000   0.000000   0.000000   0.000000  
; Sewer Node
1094             12.612000  2.200000   0.000000   0.000000   0.000000  
; Sewer Node
1103             13.740000  1.500000   0.000000   0.000000   0.000000  
; Sewer Node
1109             14.024000  1.200000   0.000000   0.000000   0.000000  
; Sewer Node
1110             14.028000  1.200000   0.000000   0.000000   0.000000  
; FultonsCk.
1130             16.865000  1.200000   0.000000   0.000000   0.000000  
; Sewer Node
1139             15.967000  1.217000   0.000000   15.000000  0.000000  
; O/F to Fultons Crk.
1141             16.000000  1.000000   0.000000   0.000000   0.000000  
; Sewer Main
1221             12.300000  2.400000   0.000000   0.000000   0.000000  
; Sewer Node
1222             12.334000  2.361000   0.000000   0.000000   0.000000  
; Sewer Node
1223             12.689000  2.000000   0.000000   0.000000   0.000000  
; Sewer Node
1224             13.328000  1.200000   0.000000   0.000000   0.000000  
; Sewer Node
1225             13.437000  1.000000   0.000000   0.000000   0.000000  
; Sewer Node
1231             9.847000   5.000000   0.000000   0.000000   0.000000  
; Sewer Node
1232             9.792000   5.000000   0.000000   0.000000   0.000000  
; Sewer MH 7439
1929             16.011000  1.570000   0.000000   0.000000   0.000000  
; Sewer Manhole
28885            16.760000  1.400000   0.000000   0.000000   0.000000  
; Sewer Manhole
28887            16.200000  1.800000   0.000000   0.000000   0.000000  
; Sewer Manhole
; Depth value given - HMW 12 JUL 2010
29699            15.340000  1.000000   0.000000   0.000000   0.000000  
; Sewer Node
30369            15.620000  1.650000   0.000000   0.000000   0.000000  
; Sewer Manhole
33275            17.730000  2.010000   0.000000   0.000000   0.000000  
; Sewer Manhole
33276            18.094000  1.770000   0.000000   0.000000   0.000000  
; Sewer Node
33277            17.530000  1.830000   0.000000   0.000000   0.000000  
; Sewer Manhole
33489            18.090000  1.700000   0.000000   0.000000   0.000000  
; Sewer Manhole
33490            17.970000  1.920000   0.000000   0.000000   0.000000  
; Sewer Node
33645            17.160000  1.220000   0.000000   0.000000   0.000000  
; Sewer Manhole
35471            13.800000  1.500000   0.000000   0.000000   0.000000  
; Sewer Manhole
35627            19.967000  0.900000   0.000000   0.000000   0.000000  
; Sewer Manhole
39977            17.550000  1.500000   0.000000   0.000000   0.000000  
; Sewer Node
; Depth value given - HMW 12 JUL 2010
40887            16.000000  1.100000   0.000000   0.000000   0.000000  
; Sewer Manhole
46262            15.200000  1.500000   0.000000   0.000000   0.000000  
; Sewer Manhole
46699            12.796000  2.204000   0.000000   0.000000   0.000000  
; Sewer Manhole
46700            13.364000  2.204000   0.000000   0.000000   0.000000  
; Sewer Manhole
46701            13.792000  1.150000   0.000000   0.000000   0.000000  
; Sewer Node
; Depth value given - HMW 12 JUL 2010
47739            15.570000  1.600000   0.000000   0.000000   0.000000  
; Sewer Node
; Depth value given - HMW 12 JUL 2010
47756            15.680000  1.400000   0.000000   0.000000   0.000000  
; Sewer Manhole
48123            15.261000  0.761000   0.000000   0.000000   0.000000  
; Sewer Manhole
48124            15.365000  0.757000   0.000000   0.000000   0.000000  
; Sewer Main
50929            12.100000  3.000000   0.000000   0.000000   0.000000  
; Sewer Manhole
50967            15.508000  1.376000   0.000000   0.000000   0.000000  
; Sewer Manhole
50968            15.307000  1.527000   0.000000   0.000000   0.000000  
; Sewer Manhole
50969            14.987000  1.725000   0.000000   0.000000   0.000000  
; Sewer Manhole
51650            14.350000  1.850000   0.000000   0.000000   0.000000  
; Sewer Manhole
52413            15.648000  1.067000   0.000000   0.000000   0.000000  
; Sewer Manhole
52414            15.276000  0.975000   0.000000   0.000000   0.000000  
; Sewer Manhole
52415            15.040000  1.240000   0.000000   0.000000   0.000000  
; Sewer Manhole
52416            14.911000  1.676000   0.000000   0.000000   0.000000  
; Sewer Manhole
52417            14.618000  1.954000   0.000000   0.000000   0.000000  
; Sewer Manhole
52418            14.260000  2.380000   0.000000   0.000000   0.000000  
; Sewer Manhole
52419            15.697000  1.058000   0.000000   0.000000   0.000000  
; Sewer Manhole
52736            13.662000  1.188000   0.000000   0.000000   0.000000  
; Sewer Manhole
52737            14.002000  0.908000   0.000000   0.000000   0.000000  
; Sewer Node
53532            19.710000  1.400000   0.000000   0.000000   0.000000  
; Sewer Node
53534            19.720000  1.500000   0.000000   0.000000   0.000000  
; Sewer Manhole
54034            14.990000  3.350000   0.000000   0.000000   0.000000  
; Sewer Manhole
54035            15.340000  2.990000   0.000000   0.000000   0.000000  
; Sewer Manhole
54036            16.570000  1.810000   0.000000   0.000000   0.000000  
; Sewer Manhole
54037            15.660000  2.600000   0.000000   0.000000   0.000000  
; Sewer Manhole
54038            15.880000  2.290000   0.000000   0.000000   0.000000  
; Sewer Manhole
54039            16.480000  1.670000   0.000000   0.000000   0.000000  
; Sewer Manhole
54040            16.150000  2.340000   0.000000   0.000000   0.000000  
; Sewer Manhole
54171            19.749000  0.871000   0.000000   0.000000   0.000000  
; Sewer Manhole
54172            19.482000  1.168000   0.000000   0.000000   0.000000  
; Sewer Node
54174            19.230000  1.130000   0.000000   0.000000   0.000000  
; Sewer Manhole
54500            18.498000  1.980000   0.000000   0.000000   0.000000  
; Sewer Manhole
54529            17.500000  1.720000   0.000000   0.000000   0.000000  
; Sewer Manhole
54530            17.270000  1.670000   0.000000   0.000000   0.000000  
; Sewer Manhole
54531            16.880000  1.860000   0.000000   0.000000   0.000000  
; Sewer Manhole
54532            15.550000  3.030000   0.000000   0.000000   0.000000  
; Sewer Manhole
54533            16.110000  2.310000   0.000000   0.000000   0.000000  
; Sewer Manhole
54534            16.630000  1.810000   0.000000   0.000000   0.000000  
; Sewer Manhole
56524            17.300000  2.600000   0.000000   0.000000   0.000000  
; Sewer Manhole
57317            15.400000  0.600000   0.000000   0.000000   0.000000  
; Sewer Manhole
57318            15.020000  1.000000   0.000000   0.000000   0.000000  
; Sewer Manhole
57319            14.480000  2.600000   0.000000   0.000000   0.000000  
; Sewer Manhole
58055            15.910000  1.040000   0.000000   0.000000   0.000000  
; Sewer Manhole
58056            16.070000  0.830000   0.000000   0.000000   0.000000  
; Sewer Manhole
58057            16.200000  0.780000   0.000000   0.000000   0.000000  
; Sewer Manhole
58058            16.440000  0.460000   0.000000   0.000000   0.000000  
; Sewer Manhole
59035            19.716000  0.934000   0.000000   0.000000   0.000000  
; Sewer Manhole
60231            16.930000  1.670000   0.000000   0.000000   0.000000  
; Sewer Manhole
60232            17.240000  1.310000   0.000000   0.000000   0.000000  
; Sewer Manhole
60464            16.541000  1.400000   0.000000   0.000000   0.000000  
60503            20.780000  0.880000   0.000000   0.000000   0.000000  
; Sewer Manhole
61724            12.776000  3.335000   0.000000   0.000000   0.000000  
; Sewer Manhole
61733            17.100000  1.320000   0.000000   0.000000   0.000000  
; Sewer Manhole
61736            18.275000  1.740000   0.000000   0.000000   0.000000  
; Sewer Manhole
61737            18.610000  1.240000   0.000000   0.000000   0.000000  
; Sewer Manhole
61738            18.930000  1.150000   0.000000   0.000000   0.000000  
; Sewer Manhole
61839            17.290000  1.340000   0.000000   0.000000   0.000000  
; Sewer Manhole
62021            15.827000  1.570000   0.000000   0.000000   0.000000  
; Sewer Manhole
62379            13.100000  1.040000   0.000000   0.000000   0.000000  
; Sewer Manhole
62386            12.250000  2.430000   0.000000   0.000000   0.000000  
; Sewer Manhole
62387            12.650000  1.570000   0.000000   0.000000   0.000000  
; Sewer Manhole
62396            12.218000  2.190000   0.000000   0.000000   0.000000  
; Sewer Manhole
62397            13.230000  0.850000   0.000000   0.000000   0.000000  
; Sewer Manhole
6249             14.822000  1.649000   0.000000   0.000000   0.000000  
; Sewer Manhole
6250             14.518000  2.161000   0.000000   0.000000   0.000000  
; Sewer Manhole
6318             14.030000  1.689000   0.000000   0.000000   0.000000  
; Sewer Manhole
6319             13.878000  1.868000   0.000000   0.000000   0.000000  
; Sewer Manhole
6320             14.664000  1.183000   0.000000   0.000000   0.000000  
; Sewer Manhole
6321             14.975000  1.006000   0.000000   0.000000   0.000000  
; Sewer Manhole
6324             15.444000  1.656000   0.000000   0.000000   0.000000  
; Sewer Manhole
6365             12.753000  3.304000   0.000000   0.000000   0.000000  
; Sewer Manhole
6366             13.777000  2.030000   0.000000   0.000000   0.000000  
; Sewer Manhole
6367             12.863000  3.018000   0.000000   0.000000   0.000000  
; Sewer Manhole
6368             12.771000  3.149000   0.000000   0.000000   0.000000  
; Sewer Manhole
6369             12.948000  2.991000   0.000000   0.000000   0.000000  
; Sewer Manhole
6370             13.111000  3.010000   0.000000   0.000000   0.000000  
; Sewer Manhole
6371             13.061000  2.997000   0.000000   0.000000   0.000000  
; Sewer Manhole
6372             13.359000  2.800000   0.000000   0.000000   0.000000  
; Sewer Manhole
6373             13.718000  2.500000   0.000000   0.000000   0.000000  
; Sewer Manhole
6391             15.530000  0.600000   0.000000   0.000000   0.000000  
; Sewer Manhole
6417             13.280000  3.100000   0.000000   0.000000   0.000000  
; Sewer Manhole
; Depth value given - HMW 12 JUL 2010
6418             13.220000  3.000000   0.000000   0.000000   0.000000  
; Sewer Manhole
6419             13.020000  3.540000   0.000000   0.000000   0.000000  
; Sewer Manhole
6420             13.630000  3.040000   0.000000   0.000000   0.000000  
; Sewer Manhole
6421             14.120000  2.760000   0.000000   0.000000   0.000000  
; Sewer Manhole
6422             14.770000  2.400000   0.000000   0.000000   0.000000  
; Sewer Manhole
6423             14.460000  2.550000   0.000000   0.000000   0.000000  
; Sewer Manhole
6424             15.240000  1.960000   0.000000   0.000000   0.000000  
; Sewer Manhole
; IMS Pipes=15.73 Dpt=1.19
6426             15.730000  1.190000   0.000000   0.000000   0.000000  
; Sewer Manhole
; Depth value given - HMW 12 JUL 2010
6427             15.990000  1.100000   0.000000   0.000000   0.000000  
; Sewer Manhole
6428             16.130000  1.030000   0.000000   0.000000   0.000000  
; Sewer Manhole
6429             15.750000  1.160000   0.000000   0.000000   0.000000  
; Sewer Manhole
6430             16.000000  1.160000   0.000000   0.000000   0.000000  
; Sewer Manhole
6431             15.970000  1.090000   0.000000   0.000000   0.000000  
; Sewer Manhole
6432             15.560000  1.370000   0.000000   0.000000   0.000000  
; Sewer Manhole
6433             15.300000  1.700000   0.000000   0.000000   0.000000  
; Sewer Manhole
6434             15.100000  1.870000   0.000000   0.000000   0.000000  
; Sewer Manhole
6435             14.840000  2.190000   0.000000   0.000000   0.000000  
; Sewer Manhole
6436             14.520000  2.360000   0.000000   0.000000   0.000000  
; Sewer Manhole
6437             14.000000  2.920000   0.000000   0.000000   0.000000  
; Sewer Manhole
6438             14.140000  2.560000   0.000000   0.000000   0.000000  
; Sewer Manhole
6439             14.920000  1.940000   0.000000   0.000000   0.000000  
; Sewer Manhole
6440             15.130000  1.780000   0.000000   0.000000   0.000000  
; Sewer Manhole
6441             15.390000  1.620000   0.000000   0.000000   0.000000  
; Sewer Manhole
6442             15.950000  1.700000   0.000000   0.000000   0.000000  
; Sewer Manhole
6443             14.490000  2.750000   0.000000   0.000000   0.000000  
; Sewer Manhole
6444             14.380000  2.960000   0.000000   0.000000   0.000000  
; Sewer Manhole
6445             14.870000  2.300000   0.000000   0.000000   0.000000  
; Sewer Manhole
6446             14.620000  2.230000   0.000000   0.000000   0.000000  
; Sewer Manhole
6447             15.250000  1.670000   0.000000   0.000000   0.000000  
; Sewer Manhole
6448             15.650000  1.090000   0.000000   0.000000   0.000000  
; Sewer Manhole
6449             15.790000  1.290000   0.000000   0.000000   0.000000  
; Sewer Manhole
6525             15.580000  1.390000   0.000000   0.000000   0.000000  
; Sewer Manhole
6553             18.340000  1.100000   0.000000   0.000000   0.000000  
; Sewer Manhole
6554             17.860000  1.100000   0.000000   0.000000   0.000000  
; Sewer Manhole
6555             17.935000  1.100000   0.000000   0.000000   0.000000  
; Sewer Manhole
6557             18.310000  1.470000   0.000000   0.000000   0.000000  
; Sewer Manhole
6559             18.017000  1.777000   0.000000   0.000000   0.000000  
; Sewer Manhole
6560             17.780000  2.300000   0.000000   0.000000   0.000000  
; Sewer Manhole
6561             18.370000  2.120000   0.000000   0.000000   0.000000  
; Sewer Manhole
6563             18.780000  1.790000   0.000000   0.000000   0.000000  
; Sewer Manhole
6564             19.200000  1.540000   0.000000   0.000000   0.000000  
; Sewer Manhole
6565             19.400000  1.740000   0.000000   0.000000   0.000000  
; Sewer Manhole
6566             19.860000  1.080000   0.000000   0.000000   0.000000  
; End of RMain
6567             20.280000  0.840000   0.000000   0.000000   0.000000  
; Sewer Manhole
; No depth value - given an estimated depth - HMW 12 JUL 2010
6568             15.360000  1.200000   0.000000   0.000000   0.000000  
; Sewer Manhole
6569             15.540000  1.030000   0.000000   0.000000   0.000000  
; Sewer Manhole
; Depth value given - HMW 12 JUL 2010
6574             15.360000  1.300000   0.000000   0.000000   0.000000  
; Sewer Manhole
6575             15.700000  1.400000   0.000000   0.000000   0.000000  
; Sewer Manhole
6576             15.910000  1.450000   0.000000   0.000000   0.000000  
; Sewer Manhole
6587             15.014000  1.801000   0.000000   0.000000   0.000000  
; Sewer Manhole
6588             14.801000  2.189000   0.000000   0.000000   0.000000  
; Sewer Manhole
6593             14.940000  1.110000   0.000000   0.000000   0.000000  
; Sewer Manhole
6594             14.300000  2.322000   0.000000   0.000000   0.000000  
; Sewer Manhole
6595             14.402000  1.610000   0.000000   0.000000   0.000000  
; Sewer Manhole
6596             14.058000  2.740000   0.000000   0.000000   0.000000  
; Sewer Manhole
6600             14.970000  1.630000   0.000000   0.000000   0.000000  
; Sewer Manhole
6603             13.772000  3.019000   0.000000   0.000000   0.000000  
; MOF
; MaxD was 1.864
6604RVXG         13.646000  1.254000   0.000000   0.000000   0.000000  
; Sewer Manhole
6606             14.307000  2.518000   0.000000   0.000000   0.000000  
; Sewer Manhole
6608             14.393000  2.554000   0.000000   0.000000   0.000000  
; Sewer Manhole
6609             14.375000  2.532000   0.000000   0.000000   0.000000  
; Sewer Manhole
6610             14.476000  2.498000   0.000000   0.000000   0.000000  
; Sewer Manhole
6612             14.622000  2.487000   0.000000   0.000000   0.000000  
; Sewer Manhole
6613             15.193000  1.952000   0.000000   0.000000   0.000000  
; Sewer Manhole
6614             15.652000  1.092000   0.000000   0.000000   0.000000  
; Sewer Manhole
6615             15.917000  0.853000   0.000000   0.000000   0.000000  
; Sewer Manhole
6641             14.630000  1.570000   0.000000   0.000000   0.000000  
; Sewer Manhole
6642             14.930000  1.830000   0.000000   0.000000   0.000000  
; Sewer Manhole
6643             15.520000  1.500000   0.000000   0.000000   0.000000  
; Sewer Manhole
6646             14.173000  0.896000   0.000000   0.000000   0.000000  
; Sewer Manhole
6647             13.787000  1.300000   0.000000   0.000000   0.000000  
; Sewer Manhole
6648             12.700000  2.470000   0.000000   0.000000   0.000000  
; Sewer Manhole
6665             15.640000  1.050000   0.000000   0.000000   0.000000  
; Sewer Manhole
6666             15.240000  1.410000   0.000000   0.000000   0.000000  
; Sewer Manhole
6667             15.599000  1.060000   0.000000   0.000000   0.000000  
; Sewer Manhole
6668             15.580000  0.950000   0.000000   0.000000   0.000000  
; Sewer Manhole
6669             14.320000  1.150000   0.000000   0.000000   0.000000  
; Sewer Manhole
6670             15.660000  1.120000   0.000000   0.000000   0.000000  
; Sewer Manhole
6683             13.972000  1.055000   0.000000   0.000000   0.000000  
; Sewer Manhole
6684             13.643000  1.076000   0.000000   0.000000   0.000000  
; Sewer Manhole
6685             13.511000  1.100000   0.000000   0.000000   0.000000  
; Sewer Manhole
6686             13.308000  1.222000   0.000000   0.000000   0.000000  
; Sewer Manhole
6687             12.972000  1.369000   0.000000   0.000000   0.000000  
; Sewer Manhole
6688             14.890000  1.960000   0.000000   0.000000   0.000000  
; Sewer Manhole
; No depth value - given an estimated depth - HMW 12 JUL 2010
6689             15.040000  1.600000   0.000000   0.000000   0.000000  
; Sewer Manhole
6690             15.290000  1.590000   0.000000   0.000000   0.000000  
; Sewer Manhole
6691             15.770000  1.300000   0.000000   0.000000   0.000000  
; Sewer Manhole
6692             16.070000  1.570000   0.000000   0.000000   0.000000  
; Sewer Manhole
6693             16.390000  1.040000   0.000000   0.000000   0.000000  
; Sewer Manhole
6694             16.450000  0.850000   0.000000   0.000000   0.000000  
; RM node
6695             16.940000  1.090000   0.000000   0.000000   0.000000  
; Sewer Manhole
6696             16.140000  0.980000   0.000000   0.000000   0.000000  
; Sewer Manhole
6697             16.610000  1.150000   0.000000   0.000000   0.000000  
; Sewer Manhole
6698             15.560000  1.510000   0.000000   0.000000   0.000000  
; Sewer Manhole
6699             15.920000  1.130000   0.000000   0.000000   0.000000  
; Sewer Manhole
6700             15.740000  1.280000   0.000000   0.000000   0.000000  
; Sewer Manhole
6701             16.510000  1.190000   0.000000   0.000000   0.000000  
; Sewer Manhole
6702             16.240000  1.120000   0.000000   0.000000   0.000000  
; Sewer Manhole
6704             13.942000  2.582000   0.000000   0.000000   0.000000  
; Sewer Manhole
6706             15.322000  1.061000   0.000000   0.000000   0.000000  
; Sewer Manhole
6707             14.889000  1.271000   0.000000   0.000000   0.000000  
; Sewer Manhole
6717             16.520000  0.850000   0.000000   0.000000   0.000000  
; Sewer Manhole
6718             16.610000  1.090000   0.000000   0.000000   0.000000  
; Sewer Manhole
6719             15.510000  2.360000   0.000000   0.000000   0.000000  
; Sewer Manhole
; MxD was 1.63 but lower to Sim MOF
6720CLPMO        16.110000  1.400000   0.000000   0.000000   0.000000  
; Sewer Manhole
6738             15.636000  2.347000   0.000000   0.000000   0.000000  
; Sewer Manhole
6739             15.600000  2.400000   0.000000   0.000000   0.000000  
; Sewer Manhole
6740             15.901000  2.429000   0.000000   0.000000   0.000000  
; Sewer Manhole
6741             15.930000  2.400000   0.000000   0.000000   0.000000  
; Sewer Manhole
6742             16.167000  2.597000   0.000000   0.000000   0.000000  
; Sewer Manhole
6743             16.499000  2.728000   0.000000   0.000000   0.000000  
; Sewer Manhole
6744             16.852000  2.329000   0.000000   0.000000   0.000000  
; Sewer Manhole
6745             17.240000  2.640000   0.000000   0.000000   0.000000  
; Sewer Manhole
6746             17.310000  2.400000   0.000000   0.000000   0.000000  
; Sewer Manhole
6758             15.630000  1.790000   0.000000   0.000000   0.000000  
; Sewer Manhole
6759             15.850000  1.520000   0.000000   0.000000   0.000000  
; Sewer Manhole
6760             13.750000  3.190000   0.000000   0.000000   0.000000  
; Sewer Manhole
6761             13.500000  3.190000   0.000000   0.000000   0.000000  
; Sewer Manhole
6762             14.040000  2.000000   0.000000   0.000000   0.000000  
; Sewer Manhole
6763             13.330000  3.280000   0.000000   0.000000   0.000000  
; Sewer Manhole
6764             12.910000  3.120000   0.000000   0.000000   0.000000  
; end RM
6765             15.620000  1.650000   0.000000   0.000000   0.000000  
; Sewer Manhole
6766             14.990000  2.000000   0.000000   0.000000   0.000000  
; Sewer Manhole
6767             15.440000  1.990000   0.000000   0.000000   0.000000  
; Sewer Manhole
6768             15.150000  1.850000   0.000000   0.000000   0.000000  
; Sewer Manhole
6769             15.494000  1.500000   0.000000   0.000000   0.000000  
; Sewer Manhole
6770             15.819000  1.300000   0.000000   0.000000   0.000000  
; Sewer Manhole
6802             15.088000  1.100000   0.000000   0.000000   0.000000  
; Sewer Manhole
6803             15.274000  0.900000   0.000000   0.000000   0.000000  
; Sewer Manhole
; Depth value given - HMW 12 JUL 2010
6804             14.970000  1.800000   0.000000   0.000000   0.000000  
; Sewer Manhole
; Depth value given - HMW 12 JUL 2010
6805             14.620000  2.100000   0.000000   0.000000   0.000000  
; Sewer Manhole
6806             15.850000  0.960000   0.000000   0.000000   0.000000  
; Sewer Manhole
; Depth value given - HMW 12 JUL 2010
6807             14.450000  2.250000   0.000000   0.000000   0.000000  
; Sewer Manhole
; Depth value given - HMW 12 JUL 2010
6808             14.200000  2.400000   0.000000   0.000000   0.000000  
; Sewer Manhole
6809             15.380000  1.290000   0.000000   0.000000   0.000000  
; Sewer Manhole
6810             15.040000  1.590000   0.000000   0.000000   0.000000  
; Sewer Manhole
6822             18.310000  1.686000   0.000000   0.000000   0.000000  
; Sewer Manhole
6823             18.210000  1.670000   0.000000   0.000000   0.000000  
; O/F flows to old PS
6824             16.780000  2.000000   0.000000   0.000000   0.000000  
; Sewer Manhole
6824PRI          19.093000  1.000000   0.000000   0.000000   0.000000  
; Sewer Manhole
6825             17.990000  1.700000   0.000000   0.000000   0.000000  
; Sewer Manhole
6826             17.556000  1.747000   0.000000   0.000000   0.000000  
; Sewer Manhole
6838             13.168000  1.670000   0.000000   0.000000   0.000000  
; Sewer Manhole
6839             12.100000  3.161000   0.000000   0.000000   0.000000  
; Sewer Manhole
6840             15.820000  2.100000   0.000000   0.000000   0.000000  
; Sewer Manhole
6841             15.820000  1.600000   0.000000   0.000000   0.000000  
; Sewer Manhole
6842             16.470000  1.400000   0.000000   0.000000   0.000000  
; Sewer Manhole
; Depth value given - HMW 12 JUL 2010
6843             16.071000  1.250000   0.000000   0.000000   0.000000  
; Sewer Manhole
6844             16.190000  1.110000   0.000000   0.000000   0.000000  
; Sewer Manhole
6845             16.720000  1.090000   0.000000   0.000000   0.000000  
; Sewer Manhole
6846             16.550000  0.910000   0.000000   0.000000   0.000000  
; Sewer Manhole
6859             14.502000  2.112000   0.000000   0.000000   0.000000  
; Sewer Manhole
6860             14.432000  1.929000   0.000000   0.000000   0.000000  
; Sewer Manhole
6861             14.304000  1.893000   0.000000   0.000000   0.000000  
; Sewer Manhole
6862             14.124000  2.155000   0.000000   0.000000   0.000000  
; Sewer Manhole
6863             14.500000  2.392000   0.000000   0.000000   0.000000  
; Sewer Manhole
6865             15.188000  1.500000   0.000000   0.000000   0.000000  
; Sewer Manhole
6867             15.005000  1.231000   0.000000   0.000000   0.000000  
; EndBUDRM
; Could be on PM if PM extended to Nelsonl
6868             14.927000  1.307000   0.000000   100.000000 0.000000  
; Sewer Manhole
6869             15.392000  1.009000   0.000000   0.000000   0.000000  
; Sewer Manhole
6870             15.730000  1.000000   0.000000   0.000000   0.000000  
; Sewer Manhole
; Depth value given - HMW 12 JUL 2010
6871             15.680000  1.000000   0.000000   0.000000   0.000000  
; Sewer Manhole
; IMS Pipes 15.56 Dpt 1.03
6872             15.560000  1.030000   0.000000   0.000000   0.000000  
; Sewer Manhole
6873             15.270000  1.710000   0.000000   0.000000   0.000000  
; Sewer Manhole
6874             14.960000  2.470000   0.000000   0.000000   0.000000  
; Sewer Manhole
; Depth value given - HMW 12 JUL 2010
6875             15.389000  1.900000   0.000000   0.000000   0.000000  
; Sewer Manhole
6876             15.480000  1.870000   0.000000   0.000000   0.000000  
; Sewer Manhole
6877             15.816000  1.660000   0.000000   0.000000   0.000000  
; Sewer Manhole
6878             15.850000  1.480000   0.000000   0.000000   0.000000  
; Sewer Manhole
6896             17.120000  0.620000   0.000000   0.000000   0.000000  
; Sewer Manhole
6897             16.670000  0.650000   0.000000   0.000000   0.000000  
; Sewer Manhole
6898             16.650000  0.530000   0.000000   0.000000   0.000000  
; Sewer Manhole
6899             16.870000  0.680000   0.000000   0.000000   0.000000  
; Sewer Manhole
6900             16.630000  0.590000   0.000000   0.000000   0.000000  
; Sewer Manhole
6901             16.260000  1.070000   0.000000   0.000000   0.000000  
; Sewer Manhole
6902             16.350000  1.230000   0.000000   0.000000   0.000000  
; Sewer Manhole
6903             15.980000  1.370000   0.000000   0.000000   0.000000  