; None of the SWMM5 infiltration models match the runoff surfaces used in this model.
; [OPTIONS]INFILTRATION has been set to 'HORTON'.  Review infiltration data.
; This system mixes flood types 'Stored' and 'Lost' in InfoWorks CS - review the setting of ALLOW_PONDING
; SWMM5 export of network Langley Network (DEMO) from InfoWorks 10.0.3.18025
; Entire Network
[TITLE]
Base network, created from GIS data.
[OPTIONS]
FLOW_UNITS MGD
INFILTRATION HORTON
ALLOW_PONDING YES
[SUBCATCHMENTS]
; Name Raingage Outlet Area %Imperv Width Slope Clength
44621601 1 44621601 23.148832 25.085397 566.601050 1.000000 0.000000
44623701 1 44623701 11.352021 34.740966 396.653543 0.900000 0.000000
44627703 3 44627703 16.254592 29.872302 474.737533 0.000000 0.000000
44629501 3 44629501 5.656242 39.799039 280.183727 1.400000 0.000000
44629801 2 44629801 24.236096 20.799347 579.724409 0.300000 0.000000
44629851 2 44629851 19.711596 38.786511 522.637795 0.300000 0.000000
44636401 2 44636401 0.647416 12.595420 94.488189 0.000000 0.000000
45620903 3 45620903 8.055635 24.509202 334.317585 3.300000 0.000000
45620952 1 45620952 0.000000 0.000000 559.055118 0.900000 0.000000
[SUBAREAS]
; Subcatch Imperv_N Perv_N Imperv_S Perv_S PctZero RouteTo
44621601 0.000000 0.000000 0.019642 0.110236 0.000000 OUTLET
44623701 0.000000 0.000000 0.026457 0.116199 0.000000 OUTLET
44627703 0.000000 0.000000 0.005872 0.000000 0.000000 OUTLET
44629501 0.000000 0.000000 0.018728 0.093167 0.000000 OUTLET
44629801 0.000000 0.000000 0.029520 0.201263 0.000000 OUTLET
44629851 0.000000 0.000000 0.030896 0.201263 0.000000 OUTLET
44636401 0.000000 0.000000 0.012501 0.000000 0.000000 OUTLET
45620903 0.000000 0.000000 0.014441 0.060683 0.000000 OUTLET
45620952 0.000000 0.000000 0.000000 0.000000 0.000000 OUTLET
[INFILTRATION]
; Subcatch MaxRate MinRate DecayRate DryTime MaxInfil
; Subcatch Suction Conduct InitDef
; Subcatch CurveNo Conduct DryTime
44621601 0.000000 0.000000 0.000000 999.000000 0.000000
44623701 0.000000 0.000000 0.000000 999.000000 0.000000
44627703 0.000000 0.000000 0.000000 999.000000 0.000000
44629501 0.000000 0.000000 0.000000 999.000000 0.000000
44629801 0.000000 0.000000 0.000000 999.000000 0.000000
44629851 0.000000 0.000000 0.000000 999.000000 0.000000
44636401 0.000000 0.000000 0.000000 999.000000 0.000000
45620903 0.000000 0.000000 0.000000 999.000000 0.000000
45620952 0.000000 0.000000 0.000000 999.000000 0.000000
[JUNCTIONS]
; Name Elev ( Ymax Y0 Ysur Apond )
44621601 32.742782 9.908136 0.000000 0.000000 1008470.766942
44623701 39.304462 6.922572 0.000000 0.000000 494494.044544
44626701 22.801837 4.429134 0.000000 0.000000 0.000000
44627701 17.388451 4.002625 0.000000 0.000000 0.000000
44627703 19.225722 6.725722 0.000000 0.000000 708050.027211
44629501 34.481627 5.708661 0.000000 0.000000 246493.548543
44629801 13.549869 4.265092 0.000000 0.000000 1055724.333671
44629851 13.090551 6.135171 0.000000 0.000000 858637.133941
44636401 3.280840 13.320210 0.000000 0.000000 28093.806188
45620903 12.565617 4.297900 0.000000 0.000000 350903.479585
45620952 9.809711 8.038058 0.000000 0.000000 981560.990900
45630052 7.381890 6.660105 0.000000 0.000000 0.000000
45630094 12.139108 7.545932 0.000000 0.000000 0.000000
45630095 12.467192 7.217848 0.000000 3277.559055 0.000000
45631202 10.990814 3.116798 0.000000 0.000000 0.000000
45631204 10.990814 2.132546 0.000000 3277.559055 0.000000
[OUTFALLS]
; Name InvertEl FREE FlapGate
; Name InvertEl NORMAL FlapGate
; Name InvertEl FIXED FixedStage FlapGate
; Name InvertEl TIDAL TideTable FlapGate
; Name InvertEl TIMESERIES StageSeries FlapGate
45631203 10.564304 FREE NO
45632352 3.444882 FREE NO
[STORAGE]
; Name InvertEl MaxDepth InitDepth TABULAR Atable
[CONDUITS]
; Name Node1 Node2 Length Nvalue Zup Zdown InitFlow
; ks value of 0.300000 mm converted using n = 0.038 * (ks / 1000.0)**(1./6.)
44621601.1 44621601 44626701 1482.939633 0.009832 0.000000 0.098425 0.000000
; ks value of 0.300000 mm converted using n = 0.038 * (ks / 1000.0)**(1./6.)
44623701.1 44623701 44621601 387.139108 0.009832 0.000000 0.000000 0.000000
; ks value of 0.300000 mm converted using n = 0.038 * (ks / 1000.0)**(1./6.)
44626701.1 44626701 44627701 492.125984 0.009832 0.000000 0.065617 0.000000
; ks value of 0.300000 mm converted using n = 0.038 * (ks / 1000.0)**(1./6.)
44627701.1 44627701 44629801 672.572178 0.009832 0.000000 0.065617 0.000000
; Bottom and top roughness values differ in CS - converting top roughness
; ks value of 12.000000 mm converted using n = 0.038 * (ks / 1000.0)**(1./6.)
44627703.2 44627703 44627701 196.850394 0.018182 0.000000 0.065617 0.000000
; ks value of 0.300000 mm converted using n = 0.038 * (ks / 1000.0)**(1./6.)
44629501.1 44629501 44627703 1025.590551 0.009832 0.000000 0.131234 0.000000
; ks value of 0.300000 mm converted using n = 0.038 * (ks / 1000.0)**(1./6.)
44629801.1 44629801 45620903 364.173228 0.009832 0.000000 0.000000 0.000000
; ks value of 0.300000 mm converted using n = 0.038 * (ks / 1000.0)**(1./6.)
44629851.1 44629851 45620952 534.776903 0.009832 0.000000 0.000000 0.000000
; Bottom and top roughness values differ in CS - converting top roughness
; ks value of 1.500000 mm converted using n = 0.038 * (ks / 1000.0)**(1./6.)
45620903.1 45620903 45630094 85.301837 0.012857 0.000000 0.196850 0.000000
; Bottom and top roughness values differ in CS - converting top roughness
; ks value of 1.500000 mm converted using n = 0.038 * (ks / 1000.0)**(1./6.)
45620952.1 45620952 45630052 419.947507 0.012857 0.426509 0.065617 0.000000
; ks value of 0.300000 mm converted using n = 0.038 * (ks / 1000.0)**(1./6.)
45630052.1 45630052 45632352 935.039370 0.009832 0.000000 0.000000 0.000000
; ks value of 0.300000 mm converted using n = 0.038 * (ks / 1000.0)**(1./6.)
45630094.1 45630094 45631202 301.837270 0.009832 0.196850 0.032808 0.000000
; Bottom and top roughness values differ in CS - converting top roughness
; ks value of 1.500000 mm converted using n = 0.038 * (ks / 1000.0)**(1./6.)
45630095.1 45630095 45630094 328.083990 0.012857 0.000000 0.000000 0.000000
; Bottom and top roughness values differ in CS - converting top roughness
; ks value of 1.500000 mm converted using n = 0.038 * (ks / 1000.0)**(1./6.)
45631204.1 45631204 45631203 803.805774 0.012857 0.032808 0.000000 0.000000
[PUMPS]
; Name Node1 Node2 CurveName ( InitStatus )
44636401.1 44636401 45630095 44636401.1
[ORIFICES]
; Name Node1 Node2 Type Height Cd ( Flap Orate )
45631202.1 45631202 45631204 SIDE 0.032808 1.251579
[WEIRS]
; Name Node1 Node2 Type Height Cd ( FlapGate EC Cd2 )
45631202.2 45631202 45630052 TRANSVERSE 1.148294 2.661824 NO 0.000000 0.000000
[OUTLETS]
; Name Node1 Node2 Height TABULAR Qtable ( FlapGate ) 
[XSECTIONS]
; Link Shape Geom1 Geom2 Geom3 Geom4
; Link IRREGULAR Transect
44621601.1 CIRCULAR 1.230315 0.000000 0.000000 0.000000
44623701.1 CIRCULAR 0.492126 0.000000 0.000000 0.000000
44626701.1 CIRCULAR 1.230315 0.000000 0.000000 0.000000
44627701.1 CIRCULAR 1.230315 0.000000 0.000000 0.000000
44627703.2 CIRCULAR 1.476378 0.000000 0.000000 0.000000
44629501.1 CIRCULAR 1.476378 0.000000 0.000000 0.000000
44629801.1 CIRCULAR 1.230315 0.000000 0.000000 0.000000
44629851.1 CIRCULAR 2.460630 0.000000 0.000000 0.000000
45620903.1 CIRCULAR 1.230315 0.000000 0.000000 0.000000
45620952.1 CIRCULAR 2.460630 0.000000 0.000000 0.000000
45630052.1 CIRCULAR 3.444882 0.000000 0.000000 0.000000
45630094.1 RECT_OPEN 2.132546 1.476378 0.000000 0.000000
45630095.1 CIRCULAR 0.246063 0.000000 0.000000 0.000000
45631204.1 CIRCULAR 1.230315 0.000000 0.000000 0.000000
45631202.1 CIRCULAR 1.017060 0.000000 0.000000 0.000000
45631202.2 RECT_OPEN 0.000000 9.842520 0.000000 0.000000
[LOSSES]
; Conduit EntryLoss ExitLoss AgvLoss ( FlapGate )
44621601.1 0.150000 0.015000 0.000000 NO
44623701.1 0.150000 0.015000 0.000000 NO
44626701.1 0.150000 0.015000 0.000000 NO
44627701.1 0.150000 0.015000 0.000000 NO
44627703.2 0.900000 0.090000 0.000000 NO
44629501.1 0.150000 0.015000 0.000000 NO
44629801.1 0.150000 0.015000 0.000000 NO
44629851.1 0.150000 0.015000 0.000000 NO
45620903.1 0.150000 0.015000 0.000000 NO
45620952.1 0.150000 0.015000 0.000000 NO
45630052.1 0.150000 0.015000 0.000000 NO
45630094.1 0.150000 0.015000 0.000000 NO
45630095.1 0.150000 0.015000 0.000000 NO
45631204.1 1.200000 0.015000 0.000000 NO
[TRANSECTS]
; NC Nleft Nright Nchannel
; X1 Name Nsta Xleft Xright 0 0 0 Wfactor Eoffset
; GR Station Elevation ...
[CONTROLS]
RULE 44636401.1_ON
IF NODE 44636401 HEAD >= 8.858268
THEN PUMP 44636401.1 STATUS = ON
RULE 44636401.1_OFF
IF NODE 44636401 HEAD <= 4.330709
THEN PUMP 44636401.1 STATUS = OFF
[DWF]
; Node Item Value (Pat1 Pat2 Pat3 Pat4)
44621601 FLOW 1128 MONTHLY_POP_1 HOURLY_POP_1 WEEKEND_POP_1
44623701 FLOW 400 MONTHLY_POP_1 HOURLY_POP_1 WEEKEND_POP_1
44627703 FLOW 2517 MONTHLY_POP_1 HOURLY_POP_1 WEEKEND_POP_1
44629501 FLOW 1117 MONTHLY_POP_1 HOURLY_POP_1 WEEKEND_POP_1
44629801 FLOW 2046 MONTHLY_POP_1 HOURLY_POP_1 WEEKEND_POP_1
44636401 FLOW 187 MONTHLY_POP_1 HOURLY_POP_1 WEEKEND_POP_1
45620903 FLOW 571 MONTHLY_POP_1 HOURLY_POP_1 WEEKEND_POP_1
45620952 FLOW 456 MONTHLY_POP_1 HOURLY_POP_1 WEEKEND_POP_1
[CURVE]
44636401.1 PUMP2 0.000000 0.182596
[COORDINATES]
; Node XCoord YCoord
44621601 2113904.193319 861650.269956
44623701 2113907.493508 862040.676576
44626701 2115006.564522 861955.366351
44627701 2115475.732321 862099.747595
44627703 2115469.158994 861902.887935
44629501 2115928.480327 861249.990835
44629801 2116003.951856 862506.553721
44629851 2115866.155455 862388.444484
44636401 2114855.648523 864307.744172
45620903 2116151.567670 862808.403013
45620952 2116167.987461 862814.962815
45630052 2116446.853400 863129.931712
45630094 2116164.714324 862893.713239
45630095 2115948.173259 863057.741089
45631202 2116361.562460 863126.651810
45631203 2116850.396138 863805.788119
45631204 2116381.228338 863152.891019
45632352 2116942.260405 863923.897355
[VERTICES]
; Link XCoord YCoord
44629501.1 2115599.137733 861236.707236
44629501.1 2115595.242429 861414.149882
44629501.1 2115474.325682 861646.170081
[POLYGONS]
; Subcatch XCoord YCoord
44621601 2113890.262195 861697.467732
44621601 2113833.536822 861625.211512
44621601 2113781.951086 861609.730379
44621601 2113823.203444 861444.620161
44621601 2113668.500340 861403.326207
44621601 2113493.157531 861382.695629
44621601 2113513.797235 861253.664323
44621601 2113261.089349 861222.702057
44621601 2113271.395676 861140.146948
44621601 2113126.998898 861119.516370
44621601 2113157.944929 860825.374846
44621601 2112936.183074 860820.225401
44621601 2112858.845047 860897.631065
44621601 2112858.845048 861331.069987
44621601 2112729.921286 861346.551120
44621601 2112729.921286 861325.920542
44621601 2112673.168862 861336.252230
44621601 2112704.114893 861227.884300
44621601 2112626.776866 861181.440901
44621601 2112585.497458 861176.258658
44621601 2112595.830835 861150.478636
44621601 2112348.289638 861140.146947
44621601 2112348.289638 861258.846566
44621601 2112544.245100 861279.477143
44621601 2112508.159431 861537.474159
44621601 2112245.145219 861568.436424
44621601 2112250.311907 861444.620160
44621601 2111992.437333 861460.068494
44621601 2111291.093150 861604.580933
44621601 2111296.232789 861774.873395
44621601 2111270.453447 861790.354527
44621601 2111280.759773 861836.797926
44621601 2110986.826581 861903.871902
44621601 2110692.866337 861970.945878
44621601 2110285.455348 862068.982120
44621601 2110063.693493 862079.313808
44621601 2110073.999820 862208.312315
44621601 2110254.509317 862198.013426
44621601 2110285.455348 862161.868917
44621601 2110285.455348 862110.276074
44621601 2110821.790099 861986.427011
44621601 2111270.453447 861878.059081
44621601 2111296.232790 862569.527817
44621601 2111322.012132 862574.710061
44621601 2111327.178822 862848.188209
44621601 2111672.697750 862843.038765
44621601 2111662.391422 862254.755715
44621601 2112054.329396 862172.200606
44621601 2112704.114894 862115.425520
44621601 2112714.448271 861878.059082
44621601 2112863.984687 861872.909638
44621601 2112858.845049 861749.060575
44621601 2113555.049594 861769.691153
44621601 2113565.355920 861728.429998
44621601 2113668.500340 861743.911130
44621601 2113673.667029 861712.948865
44621601 2113854.149475 861749.060575
44621601 2113890.262195 861697.467732
44623701 2113890.262195 861697.467732
44623701 2113833.536822 861625.211512
44623701 2113883.093752 861617.044559
44623701 2113946.933467 861636.723965
44623701 2113996.057586 861685.856882
44623701 2114064.820533 861779.235665
44623701 2114055.001119 861916.860312
44623701 2114113.944652 861936.506920
44623701 2114040.258474 862147.863742
44623701 2113932.217873 862310.054848
44623701 2113922.371409 862457.486400
44623701 2113932.217873 862486.972710
44623701 2114010.800233 862482.085658
44623701 2113986.238174 862545.978130
44623701 2114025.542879 862634.437061
44623701 2114074.639948 862649.163816
44623701 2114074.639948 862722.895991
44623701 2113932.217873 862717.976140
44623701 2113902.732582 862688.489830
44623701 2113411.545492 862762.222004
44623701 2113244.561358 862831.034328
44623701 2112861.414870 862835.954179
44623701 2112866.338102 862860.520638
44623701 2112473.399250 862855.600786
44623701 2112360.408366 862909.653555
44623701 2112262.187179 862934.220014
44623701 2112257.263947 862860.520638
44623701 2112139.376881 862865.440489
44623701 2112139.376881 862904.733703
44623701 2111952.726869 862919.493258
44623701 2111996.954807 863086.604216
44623701 2111716.979789 863155.416539
44623701 2111628.550964 862993.225433
44623701 2111662.932438 862963.739123
44623701 2111628.550964 862914.573406
44623701 2111702.237143 862860.520637
44623701 2111815.200976 862850.680934
44623701 2112104.995408 862791.708314
44623701 2112507.780723 862693.409680
44623701 2112704.250149 862629.517208
44623701 2112871.261334 862614.757654
44623701 2113396.829896 862526.298723
44623701 2113612.938149 862491.892561
44623701 2113814.330807 862482.085657
44623701 2113833.969635 862457.486400
44623701 2113809.407575 862378.867172
44623701 2113598.195503 862423.080238
44623701 2112861.414869 862452.566547
44623701 2112861.414868 861980.752784
44623701 2113499.974315 861931.619867
44623701 2113499.974315 861877.534299
44623701 2113529.432556 861877.534299
44623701 2113544.175202 861843.128137
44623701 2113666.958449 861852.967840
44623701 2113668.500340 861743.911130
44623701 2113673.667029 861712.948865
44623701 2113854.149475 861749.060575
44623701 2113890.262195 861697.467732
44627703 2115460.719167 861808.361187
44627703 2115507.354619 861803.703728
44627703 2115498.022118 861631.082536
44627703 2115623.916199 861421.168870
44627703 2115928.967240 861432.812519
44627703 2115916.983768 861253.041143
44627703 2115944.954219 861185.114393
44627703 2115940.950712 861129.192080
44627703 2116036.764384 861061.265330
44627703 2116072.714799 860709.725537
44627703 2116447.989527 860713.727017
44627703 2116509.746334 860441.462432
44627703 2116640.293140 860446.152690
44627703 2116640.293140 860324.829151
44627703 2116803.490172 860324.829151
44627703 2116906.066526 860105.567767
44627703 2116901.386751 860086.905130
44627703 2116798.810396 860054.270115
44627703 2116761.534495 860072.932752
44627703 2116337.243851 859923.631656
44627703 2116416.502479 859639.067443
44627703 2116542.396560 859657.730080
44627703 2116551.729060 859695.055354
44627703 2116635.640414 859704.370273
44627703 2116668.263590 859662.387539
44627703 2116691.581316 859676.392717
44627703 2116710.246317 859583.079532
44627703 2116164.741368 859578.422072
44627703 2116169.394093 859601.742169
44627703 2116146.103418 859620.404806
44627703 2116141.423642 859415.148599
44627703 2115852.359579 859429.120977
44627703 2115512.007340 859480.451428
44627703 2115516.687116 859513.086443
44627703 2115404.778261 859527.091621
44627703 2115418.763486 859550.411717
44627703 2115297.549181 859564.416894
44627703 2115316.105980 859674.293579
44627703 2115187.209268 859683.510101
44627703 2114975.429131 859660.485195
44627703 2114910.994302 859913.824751
44627703 2114924.790172 859996.740649
44627703 2114993.850677 860015.173693
44627703 2114966.231885 860079.656548
44627703 2114910.994302 860088.873070
44627703 2114851.131044 860111.897975
44627703 2114906.368628 860185.630150
44627703 2114966.231885 860208.655055
44627703 2114883.375511 860581.776597
44627703 2114841.933798 860696.933922
44627703 2114860.355343 860701.525784
44627703 2114832.736552 860844.332675
44627703 2114975.429134 860881.165963
44627703 2114952.408966 861000.947949
44627703 2115053.686885 861019.380993
44627703 2115044.489638 861116.105275
44627703 2115067.509807 861157.563224
44627703 2115039.891015 861222.046078
44627703 2115026.068094 861249.695644
44627703 2114993.850679 861254.287505
44627703 2114989.252055 861277.345209
44627703 2114961.633264 861295.745454
44627703 2114915.592928 861378.661352
44627703 2114938.558994 861416.511410
44627703 2115106.381701 861453.803885
44627703 2115134.379203 861430.483789
44627703 2115194.972830 861458.494144
44627703 2115232.275782 861397.848774
44627703 2115264.926008 861360.523500
44627703 2115190.320105 861332.513145
44627703 2115199.652605 861285.872952
44627703 2115218.290556 861295.187871
44627703 2115330.199411 861262.552856
44627703 2115339.504861 861234.542501
44627703 2115418.763489 861243.890219
44627703 2115418.763489 861257.895397
44627703 2115460.719166 861262.552856
44627703 2115456.066441 861309.193049
44627703 2115539.977794 861304.535589
44627703 2115479.384167 861407.163693
44627703 2115572.628021 861421.168870
44627703 2115460.719167 861621.767617
44627703 2115460.719167 861808.361187
44629501 2116196.471874 861768.379194
44629501 2115936.947205 861760.376235
44629501 2115916.983769 861732.431479
44629501 2115928.967240 861432.812519
44629501 2115916.983768 861253.041143
44629501 2115944.954219 861185.114393
44629501 2115940.950712 861129.192080
44629501 2116036.764384 861061.265330
44629501 2116072.714799 860709.725537
44629501 2116447.989527 860713.727017
44629501 2116404.086198 861109.217483
44629501 2116907.121507 861113.218963
44629501 2116974.991779 861105.216005
44629501 2116982.971743 860877.525275
44629501 2116998.958722 860877.525275
44629501 2116998.958722 860709.725538
44629501 2117014.918651 860649.801746
44629501 2117026.902122 860482.002009
44629501 2117278.419776 860509.979565
44629501 2117266.436305 860621.824190
44629501 2117306.363177 860617.855510
44629501 2117302.386720 860741.671774
44629501 2117330.330121 860761.646371
44629501 2117330.330121 860809.598525
44629501 2117545.924410 860821.570163
44629501 2117877.295809 860821.570164
44629501 2117881.299317 860917.474470
44629501 2118064.946699 860961.392345
44629501 2118048.959719 861073.269769
44629501 2117917.222682 861221.062110
44629501 2117853.328866 861225.063589
44629501 2117853.328866 861280.985902
44629501 2117737.551757 861300.960499
44629501 2117737.551758 861436.781201
44629501 2117701.628393 861476.730395
44629501 2117422.167338 861480.731874
44629501 2117422.167339 861712.456882
44629501 2117318.346651 861800.325431
44629501 2117150.659198 861820.300028
44629501 2117154.662706 861932.177452
44629501 2117134.699270 861944.149091
44629501 2116982.971745 861940.147612
44629501 2116982.971745 862028.048960
44629501 2116759.397492 862127.921946
44629501 2116631.636911 862167.871140
44629501 2116647.623890 861984.098285
44629501 2116495.896365 861984.098285
44629501 2116495.896365 861876.222340
44629501 2116587.733581 861876.222340
44629501 2116587.733581 861736.400159
44629501 2116420.046128 861732.431479
44629501 2116376.142800 862111.948828
44629501 2116212.431804 862099.944390
44629501 2116204.451839 862067.998154
44629501 2116176.508439 862067.998154
44629501 2116144.561531 862036.019118
44629501 2116156.545003 861964.123688
44629501 2116160.548510 861816.298548
44629501 2116196.471874 861768.379194
44629801 2116098.250688 862663.988970
44629801 2115823.171851 862541.123877
44629801 2115798.609792 862482.151257
44629801 2115680.722726 862482.151257
44629801 2115577.578306 862393.659527
44629801 2113932.217873 862486.972710
44629801 2113922.371409 862457.486400
44629801 2113932.217873 862310.054848
44629801 2114040.258474 862147.863742
44629801 2114113.944652 861936.506920
44629801 2114055.001119 861916.860312
44629801 2114064.820533 861779.235665
44629801 2113996.057586 861685.856882
44629801 2113946.933467 861636.723965
44629801 2113883.093752 861617.044559
44629801 2113833.536822 861625.211512
44629801 2113781.951086 861609.730379
44629801 2113823.203444 861444.620161
44629801 2113493.157531 861382.695629
44629801 2113513.797235 861253.664323
44629801 2113261.089349 861222.702057
44629801 2113271.395676 861140.146948
44629801 2113126.998898 861119.516370
44629801 2113157.944929 860825.374846
44629801 2113262.225479 860821.406165
44629801 2113324.036389 860825.506042
44629801 2113319.924678 860907.995553
44629801 2113509.496169 860928.593331
44629801 2113492.995226 861056.411075
44629801 2113542.443954 861064.676425
44629801 2113563.056607 860907.995553
44629801 2113954.534720 860961.589136
44629801 2113933.949117 861118.270008
44629801 2114024.596101 861134.767911
44629801 2114049.320465 861052.311199
44629801 2114259.477558 861101.772106
44629801 2114313.065047 861048.178524
44629801 2114542.698664 861111.513413
44629801 2114515.079872 861203.645833
44629801 2114662.398128 861254.287505
44629801 2114713.037088 861203.645833
44629801 2114703.812791 861300.370114
44629801 2114726.832959 861337.203403
44629801 2114883.375513 861378.661352
44629801 2114915.592928 861378.661352
44629801 2114938.558994 861416.511410
44629801 2115106.381701 861453.803885
44629801 2115134.379203 861430.483789
44629801 2115194.972830 861458.494144
44629801 2115232.275782 861397.848774
44629801 2115264.926008 861360.523500
44629801 2115190.320105 861332.513145
44629801 2115199.652605 861285.872952
44629801 2115218.290556 861295.187871
44629801 2115330.199411 861262.552856
44629801 2115339.504861 861234.542501
44629801 2115418.763489 861243.890219
44629801 2115418.763489 861257.895397
44629801 2115460.719166 861262.552856
44629801 2115456.066441 861309.193049
44629801 2115539.977794 861304.535589
44629801 2115479.384167 861407.163693
44629801 2115572.628021 861421.168870
44629801 2115460.719167 861621.767617
44629801 2115460.719167 861808.361187
44629801 2115507.354619 861803.703728
44629801 2115484.253299 862064.390262
44629801 2115518.634772 862010.304694
44629801 2115553.016246 862029.984100
44629801 2115538.300651 862049.630707
44629801 2115828.095083 862280.634137
44629801 2115926.316271 862354.366313
44629801 2116058.945983 862477.231405
44629801 2116147.347757 862619.743105
44629801 2116098.250688 862663.988970
44629851 2115935.838126 862370.831416
44629851 2115864.072549 862406.746332
44629851 2115812.811423 862401.596887
44629851 2115751.298071 862350.299235
44629851 2115771.802521 862334.916499
44629851 2115720.541395 862314.417118
44629851 2115735.933258 862299.001583
44629851 2115705.176582 862283.618847
44629851 2115694.924357 862299.001583
44629851 2115402.722410 862145.141425
44629851 2115202.817542 862052.812211
44629851 2115018.277486 862011.780649
44629851 2115008.025261 862032.312829
44629851 2114838.850018 861986.131823
44629851 2114849.102243 861955.366351
44629851 2114633.805512 861893.802608
44629851 2114623.553286 861909.185344
44629851 2114587.684023 861898.952053
44629851 2114592.796610 861873.303227
44629851 2114546.675122 861857.887692
44629851 2114521.031033 861929.717525
44629851 2114521.031034 861970.749087
44629851 2114428.761006 861950.216906
44629851 2114459.517681 861827.122220
44629851 2114433.900644 861816.856130
44629851 2114428.761006 861832.271665
44629851 2114377.499879 861806.622839
44629851 2114341.630616 861898.952053
44629851 2114259.612813 861873.303227
44629851 2114285.229851 861760.441832
44629851 2114259.612813 861760.441832
44629851 2114244.220950 861801.473394
44629851 2114162.203148 861786.090658
44629851 2114167.342786 861770.707922
44629851 2114126.333884 861760.441832
44629851 2114131.446472 861714.293624
44629851 2114059.680894 861693.761444
44629851 2114054.568307 861719.410270
44629851 2113998.167543 861688.644798
44629851 2113998.167543 861668.112618
44629851 2113946.906416 861668.112618
44629851 2113916.149740 861642.463792
44629851 2113870.028252 861683.495354
44629851 2113890.532702 861693.761444
44629851 2113854.636388 861745.059096
44629851 2113854.636389 862319.533762
44629851 2113782.870812 862314.417116
44629851 2113808.514901 862381.097505
44629851 2113588.078532 862427.245712
44629851 2112865.310174 862458.011183
44629851 2112860.197585 861981.015176
44629851 2113495.808503 861934.834170
44629851 2113500.948141 861883.536517
44629851 2113536.817404 861883.536517
44629851 2113547.069630 861842.504956
44629851 2113670.096333 861857.887691
44629851 2113664.983746 861729.676360
44629851 2113680.348558 861683.495353
44629851 2113582.965943 861657.879326
44629851 2113562.461493 861729.676360
44629851 2113516.312953 861724.559714
44629851 2113516.312953 861652.729882
44629851 2113388.173662 861632.230500
44629851 2113219.025470 861621.964410
44629851 2112921.710936 861591.198938
44629851 2112865.310172 861611.698319
44629851 2112860.197585 861621.964409
44629851 2112767.927557 861632.230500
44629851 2112593.639727 861637.347145
44629851 2112434.716710 861668.112617
44629851 2112409.099672 861652.729881
44629851 2112224.559616 861678.378707
44629851 2112209.167753 861575.783402
44629851 2112511.621924 861534.751841
44629851 2112552.630825 861252.647553
44629851 2112578.247863 861144.935603
44629851 2112660.265665 861160.318339
44629851 2112650.013440 861273.179733
44629851 2112634.648628 861262.913643
44629851 2112624.396402 861329.594031
44629851 2112639.761215 861329.594031
44629851 2112573.135276 861524.518550
44629851 2112860.197585 861524.518550
44629851 2112880.702035 861452.688717
44629851 2112855.057946 861437.305981
44629851 2112906.319072 861139.818957
44629851 2112916.571297 861021.840917
44629851 2112931.963161 860980.809355
44629851 2112926.823523 860888.480141
44629851 2112937.075748 860826.916399
44629851 2113039.598001 860832.065844
44629851 2112978.084650 861196.233255
44629851 2112947.327974 861493.720279
44629851 2113157.512118 861514.252460
44629851 2113213.885832 861570.666758
44629851 2113254.894733 861514.252460
44629851 2113675.235971 861586.049494
44629851 2113839.271576 861621.964410
44629851 2113870.028252 861662.995972
44629851 2113936.654191 861627.081056
44629851 2113972.550505 861616.814966
44629851 2113998.167542 861596.315584
44629851 2114100.689795 861627.081056
44629851 2114213.464274 861662.995972
44629851 2114259.612813 861714.293625
44629851 2114408.256555 861637.347146
44629851 2114433.900643 861596.315585
44629851 2114505.666220 861627.081056
44629851 2114485.161770 861683.495354
44629851 2114454.405094 861673.262063
44629851 2114408.256555 861775.824568
44629851 2114474.909545 861796.356749
44629851 2114485.161770 861775.824568
44629851 2114669.701826 861832.271665
44629851 2114854.241881 861893.802609
44629851 2114982.381172 861950.216906
44629851 2115013.137848 861914.334789
44629851 2115397.609823 862022.046739
44629851 2115484.740212 862063.078301
44629851 2115525.749114 862093.843773
44629851 2115541.140977 862052.812211
44629851 2115894.829225 862329.799854
44629851 2115935.838126 862370.831416
44636401 2114247.548196 865204.108325
44636401 2114400.493002 865154.483422
44636401 2114483.160022 865150.350747
44636401 2114479.021261 864984.912539
44636401 2114516.243060 864881.497259
44636401 2114636.104829 864902.193435
44636401 2114656.771584 864831.872357
44636401 2114524.493532 864761.551279
44636401 2114557.576570 864616.809246
44636401 2114582.355035 864492.730590
44636401 2114578.243324 864385.182635
44636401 2114569.965802 864310.728882
44636401 2114731.161080 864298.330856
44636401 2114685.688809 864182.517550
44636401 2114536.909814 864199.081050
44636401 2114483.160020 864083.267745
44636401 2114441.826510 864029.510167
44636401 2114371.575774 863950.923738
44636401 2114458.354504 863897.166160
44636401 2114371.575773 863760.656679
44636401 2114293.020464 863806.148906
44636401 2114243.436482 863644.876172
44636401 2114193.825450 863533.195542
44636401 2114140.102707 863293.303580
44636401 2114098.769197 863165.092249
44636401 2113697.823330 863181.622950
44636401 2113722.628847 863363.624658
44636401 2113821.823860 863355.359308
44636401 2113805.295866 863231.280652
44636401 2113908.629641 863231.280652
44636401 2113974.768668 863897.166160
44636401 2114053.296927 863893.000685
44636401 2114065.686160 864008.813991
44636401 2114156.630702 864033.642842
44636401 2114226.881439 864149.456147
44636401 2114243.436484 864831.872357
44636401 2114144.214420 864836.005032
44636401 2114152.491942 864914.591461
44636401 2114226.881440 864914.591461
44636401 2114247.548196 865204.108325
45620903 2116142.451576 862855.666387
45620903 2116034.383924 862865.506090
45620903 2116014.745096 862816.340373
45620903 2115783.894197 862708.234835
45620903 2115489.176533 862688.555429
45620903 2115223.944160 862698.395132
45620903 2114521.544999 862732.801293
45620903 2114079.482028 862757.367751
45620903 2114074.639948 862722.895991
45620903 2114074.639948 862649.163816
45620903 2114025.542879 862634.437061
45620903 2113986.238174 862545.978130
45620903 2114010.800233 862482.085658
45620903 2115577.578306 862393.659527
45620903 2115680.722726 862482.151257
45620903 2115798.609792 862482.151257
45620903 2115823.171851 862541.123877
45620903 2115901.754212 862560.770485
45620903 2116098.250688 862663.988970
45620903 2116122.785697 862713.121888
45620903 2116152.270989 862772.127308
45620903 2116142.451576 862855.666387
45620952 2116184.326100 862821.785009
45620952 2116142.451576 862855.666387
45620952 2116034.383924 862865.506090
45620952 2116014.745096 862816.340373
45620952 2115783.894197 862708.234835
45620952 2114079.482028 862757.367751