[TITLE]
;;Project Title/Notes

[OPTIONS]
;;Option             Value
FLOW_UNITS           MGD
INFILTRATION         HORTON
FLOW_ROUTING         DYNWAVE
LINK_OFFSETS         DEPTH
MIN_SLOPE            0
ALLOW_PONDING        YES
SKIP_STEADY_STATE    NO

START_DATE           05/01/2012
START_TIME           00:00:00
REPORT_START_DATE    04/01/2012
REPORT_START_TIME    00:00:00
END_DATE             05/05/2012
END_TIME             00:00:00
SWEEP_START          11/01
SWEEP_END            12/01
DRY_DAYS             0
REPORT_STEP          00:05:00
WET_STEP             00:05:00
DRY_STEP             00:05:00
ROUTING_STEP         0:00:30 

INERTIAL_DAMPING     NONE
NORMAL_FLOW_LIMITED  BOTH
FORCE_MAIN_EQUATION  H-W
VARIABLE_STEP        0.75
LENGTHENING_STEP     5
MIN_SURFAREA         12.56
MAX_TRIALS           8
HEAD_TOLERANCE       0.005
SYS_FLOW_TOL         5
LAT_FLOW_TOL         5
MINIMUM_STEP         0.5
THREADS              1

[EVAPORATION]
;;Data Source    Parameters
;;-------------- ----------------
CONSTANT         0.0
DRY_ONLY         NO

[RAINGAGES]
;;Name           Format    Interval SCF      Source    
;;-------------- --------- ------ ------ ----------
GageRG-01        VOLUME    0:05     1.0      TIMESERIES SCS_10Yr        
GageRG-02        VOLUME    0:05     1.0      TIMESERIES SCS_10Yr        
Huff_(0-10_sq._mi.)_forth_quartile_1.75in VOLUME    0:05     1.0      TIMESERIES Huff_(0-10_sq._mi.)_forth_quartile_1.75in
Huff_(0-10_sq._mi.)_forth_quartile_3.52in VOLUME    0:05     1.0      TIMESERIES Huff_(0-10_sq._mi.)_forth_quartile_3.52in

[JUNCTIONS]
;;Name           Elevation  MaxDepth   InitDepth  SurDepth   Aponded   
;;-------------- ---------- ---------- ---------- ---------- ----------
01-001           926.63     13.87      0          0          0         
01-002           926.90     13.9       0          0          0         
01-012           927.63     15         0          0          0         
01-013           927.18     12.62      0          0          0         
04-053           876.11     15         0          0          0         
04-054           869.21     8.75       0          0          0         
04-055           867.40     15         0          0          0         
05-001           894.98     18.32      0          0          0         
05-002           899.58     16.52      0          0          0         
05-003           902.02     18.78      0          0          0         
05-004           903.28     17.72      0          0          0         
05-005           904.84     17.86      0          0          0         
05-006           913.19     14.21      0          0          0         
05-007           917.69     13.51      0          0          0         
05-008           922.19     12.51      0          0          0         
05-009           907.05     15         0          0          0         
06-001           877.87     7          0          0          0         
06-002           891.46     6.5        0          0          0         
;depth from FM recon
06-003           897.28     6.5        0          0          0         
06-004           898.74     7          0          0          0         
07-001           877.68     15         0          0          0         
08-001           852.81     8.19       0          0          0         
08-002           853.75     8.12       0          0          0         
08-003           854.05     8.85       0          0          0         
08-004           855.05     8.85       0          0          0         
08-005           856.67     10.33      0          0          0         
08-006           860.73     12.87      0          0          0         
08-007           861.16     12.84      0          0          0         
08-008           867.82     18.28      0          0          0         
08-009           868.09     15         0          0          0         
08-010           868.46     18.04      0          0          0         
08-011           873.70     15         0          0          0         
08-012           877.41     15         0          0          0         
08-026           877.93     12.97      0          0          0         
08-027           881.00     12.2       0          0          0         
08-028           888.00     14.3       0          0          0         
08-034           891.48     15.92      0          0          0         
09-001           938.28     13.4       0          0          0         
09-002           939.06     11.5       0          0          0         
09-006           940.06     10.9       0          0          0         
09-007           940.70     9.8        0          0          0         
09-008           942.04     9          0          0          0         
09-009           944.58     9.7        0          0          0         
09-063           945.26     12         0          0          0         
09-072           946.15     13.9       0          0          0         
09-073           947.02     15.5       0          0          0         
09-074           947.84     16.6       0          0          0         
09-075           948.26     17.5       0          0          0         
09-076           948.59     17.3       0          0          0         
09-099           943.34     9.5        0          0          0         
09-100           937.53     15.2       0          0          0         
11-003           864.64     11         0          0          0         
11-004           864.96     10         0          0          0         
11-005           865.32     7.08       0          0          0         
11-006           865.59     6.81       0          0          0         
11-007           865.82     6.58       0          0          0         
11-008           866.10     6.8        0          0          0         
11-009           866.36     8.04       0          0          0         
11-010           866.59     7.5        0          0          0         
11-012           866.94     7.36       0          0          0         
11-013           867.22     13.3       0          0          0         
11-014           868.45     9.95       0          0          0         
11-015           869.45     9.95       0          0          0         
11-015A          869.66     9.24       0          0          0         
11-016           870.14     9.76       0          0          0         
11-017           883.26     7.42       0          0          0         
11-018           897.29     12.61      0          0          0         
11-019           898.24     11.16      0          0          0         
11-019A          898.24     11.4       0          0          0         
11-020           910.58     7.04       0          0          0         
;Node does not exist in as-builts, FM11 located in manhole
11-021           911.25     12.42      0          0          0         
11-024           911.65     12.38      0          0          0         
11-031           914.05     11.31      0          0          0         
11-032           912.91     11.24      0          0          0         
;unable to survey
11-034           915.06     15         0          0          0         
;unable to survey
11-035           916.15     15         0          0          0         
;unable to survey
11-036           917.13     15         0          0          0         
11-047A          918.41     10.99      0          0          0         
;unknown manhole depth
11-047B          917.42     10         0          0          0         
11-047C          918.85     10.05      0          0          0         
11-066           920.54     10.36      0          0          0         
11-067           922.21     9.69       0          0          0         
11-068           923.47     5.93       0          0          0         
11-069           924.82     5.58       0          0          0         
11-070           925.69     5.71       0          0          0         
11-071           926.70     4.2        0          0          0         
11-075           927.45     3.97       0          0          0         
11-076           928.53     7.07       0          0          0         
11-083           931.30     8.1        0          0          0         
11-084           934.15     15.39      0          0          0         
11-109           936.98     15.4       0          0          0         
11-110           939.86     12.2       0          0          0         
11-111           942.40     12         0          0          0         
;no close storm surveys
11-112           943.61     12.5       0          0          0         
11-113           945.06     12.5       0          0          0         
;Missing Manhole, unable to survey
11-114           946.60     12.25      0          0          0         
11-115           948.25     12.25      0          0          0         
11-116           951.03     10.5       0          0          0         
11-117           952.46     9.5        0          0          0         
11-121           954.15     7.6        0          0          0         
11-122           954.91     8.2        0          0          0         
;all nodes upstream dropeed 0.36' to match survey anchor at this node
11-123           955.66     7.62       0          0          0         
11-124           956.27     9          0          0          0         
11-125           956.90     8.85       0          0          0         
11-126           957.51     6.83       0          0          0         
11-127           958.13     7.44       0          0          0         
11-128           958.85     5.21       0          0          0         
11-129           959.47     6          0          0          0         
11-130           960.08     5          0          0          0         
11-131           956.50     8.97       0          0          0         
11-132           957.56     7.83       0          0          0         
11-133           958.17     7.22       0          0          0         
12-001           870.66     10.5       0          0          0         
12-003           871.86     9.85       0          0          0         
12-004           872.80     7          0          0          0         
13-001           864.45     12         0          0          0         
13-002           865.84     13.9       0          0          0         
13-007           866.46     13.1       0          0          0         
13-008           867.09     10.75      0          0          0         
13-010           867.32     21         0          0          0         
13-014           868.05     21         0          0          0         
13-015           870.19     20         0          0          0         
13-016           872.77     20         0          0          0         
13-021           867.87     7.5        0          0          0         
13-047           868.7      15         0          0          0         
13-070           869.51     15         0          0          0         
13-071           869.85     15         0          0          0         
13-123           867.57     15         0          0          0         
14-001           857.35     12         0          0          0         
;Does not exist in as-builts, manhole was found during survey of upstream/downstream manholes
14-002           858.06     12.01      0          0          0         
14-003           858.78     9          0          0          0         
14-007           858.9      7.65       0          0          0         
14-008           860.04     9          0          0          0         
14-009           860.22     8.9        0          0          0         
14-021           860.85     8          0          0          0         
14-022           860.99     5.4        0          0          0         
14-036           862.57     8          0          0          0         
14-038           863.82     11.7       0          0          0         
;survey elevation not used
14-039           863.90     7.5        0          0          0         
14-041           864        7.5        0          0          0         
14-047           863.37     10         0          0          0         
15-001           856.06     13.2       0          0          0         
15-002           857.88     11.6       0          0          0         
15-004           859.03     13.8       0          0          0         
15-005           861.75     12.6       0          0          0         
;elevation from central relief as-builts
15-039           853.7      15.15      0          0          0         
;elevation from central relief as-builts
15-040           852.01     18.09      0          0          0         
;elevation from central relief as-builts
15-041           851.74     18.76      0          0          0         
;elevation from central relief as-builts
15-042           851.05     19.95      0          0          0         
16-012           854.85     14.1       0          0          0         
16-013           854.69     14.55      0          0          0         
16-014           854.54     15         0          0          0         
16-015           854.23     14.75      0          0          0         
16-017           855.55     13.08      0          0          0         
16-018           856.59     13.86      0          0          0         
;manhole not located during survey efforts
16-036           855.25     14.16      0          0          0         
16-058           833.06     29.15      0          0          0         
;elevation from central relief as-builts
16-058A          849.03     15.47      0          0          0         
;elevation from central relief as-builts
16-059           849.18     19.82      0          0          0         
;elevation from central relief as-builts
16-060           849.84     20.46      0          0          0         
;elevation from central relief as-builts
16-061           850.08     20.42      0          0          0         
;elevation from as-builts
16-062           832.97     19.03      0          0          0         
17-001           833.86     22.14      0          0          0         
17-002           834.74     22.46      0          0          0         
17-003           858.6696   15         0          0          0         
17-023           835.44     22.26      0          0          0         
17-023a          835.51     22.49      0          0          0         
17-024           835.35     21.65      0          0          0         
17-025           835.95     22.85      0          0          0         
;Elevation from as-builts
17-043           836.04     21.96      0          0          0         
;Elevation from as-builts
17-044           836.15     24.05      0          0          0         
;Elevation from as-builts
17-045           836.21     16.69      0          0          0         
18-029           864.12     12.28      0          0          0         
18-030           863.78     12         0          0          0         
18-031           863.38     11.02      0          0          0         
18-033           863.16     11.74      0          0          0         
18-034           862.46     16.94      0          0          0         
18-035           868.44     5.05       0          0          0         
18-036           864.43     8.45       0          0          0         
;depth calculated to match ground elevation of 18-036
18-037           862.26     10.62      0          0          0         
18-038           862.13     9.27       0          0          0         
18-039           862.08     8.5        0          0          0         
18-039A          864.4      6.5        0          0          0         
18-040           861.64     7.7        0          0          0         
18-041           861.17     6          0          0          0         
18-042           860.72     9          0          0          0         
18-043           860.26     7.54       0          0          0         
18-046           863.33     9.25       0          0          0         
18-079           864.04     12         0          0          0         
18-082           864.17     12         0          0          0         
18-083           864.33     7          0          0          0         
18-088           863.85     12         0          0          0         
18-097           863.73     12         0          0          0         
18-098           863.56     12         0          0          0         
18-099           862.81     12.59      0          0          0         
;elevation from as-builts
19-074           832.69     17.81      0          0          0         
;elevation from as-builts
19-074B          832.42     2.75       0          100        0         
;elevation from as-builts
19-074C          832.20     2.75       0          100        0         
;elevation from as-builts
19-075           832.13     15.87      0          0          0         
;elevation from as-builts
19-076           831.55     15.95      0          0          0         
;incorrect as-builts, elevation calculated from slope
19-077           830.94     16.12      0          0          0         
19-078           830.79     20.27      0          0          0         
;incorrect as-builts, elevation calculated from slope
19-079           830.57     22.2       0          0          0         
;incorrect as-builts, elevation calculated from slope
19-080           830.22     25.16      0          0          0         
;incorrect as-builts, elevation calculated from slope
19-081           829.75     23.8       0          0          0         
;incorrect as-builts, elevation calculated from slope
19-082           831.29     15.27      0          0          0         
20-039           925.27     15         0          0          0         
20-040           926.03     15         0          0          0         
20-041           927.25     15         0          0          0         
20-042           928.19     15         0          0          0         
20-043           933.68     15         0          0          0         
20-044           936.82     15         0          0          0         
20-045           937.50     15.2       0          0          0         
20-083           917.88     15         0          0          0         
20-084           920.45     16.1       0          0          0         
;Manhole not located during survey
20-085           921.85     15         0          0          0         
20-086           923.75     15         0          0          0         
;Elevation from as-builts
21-027A          856.86     15         0          0          0         
21-048           850.37     10.2       0          0          0         
21-070           843.18     11.05      0          0          0         
21-071           842.58     11.48      0          0          0         
21-072           842.28     7.92       0          0          0         
21-073           841.7      13.4       0          0          0         
;RIM ELEVATION CONFIRMED FROM SEWER REHAB DRAWINGS, CDM 2010
21-073A          842.2      7.98       0          0          0         
21-074           841.26     10.75      0          0          0         
21-074A          841.42     10.59      0          0          0         
;EXTENTS OF CDM SEWER REHAB DRAWINGS, JULY 2010
21-076           843.81     11.15      0          0          0         
21-078           850.24     10.22      0          0          0         
22-001           853.13     11.1       0          0          0         
22-020           854.58     10.6       0          0          0         
22-026           856.50     10.2       0          0          0         
;elevation from '05 survey
22-036           857.42     9.4        0          0          0         
22-038           856.02     10         0          0          0         
22-048           858.23     9.5        0          0          0         
;elevation from Hemm Rd As-builts
23-001           849.50     15.05      0          0          0         
;elevation adjusted from Hemm Rd as-builts to match vertical datum
23-001A          839.43     22         0          0          0         
23-002           853.61     14.35      0          0          0         
23-003           853.80     11         0          0          0         
23-004           854.00     10.16      0          0          0         
23-005           854.62     9.75       0          0          0         
23-006           854.94     8.3        0          0          0         
23-007           855.81     5.8        0          0          0         
23-008           856.12     5.35       0          0          0         
23-009           856.46     8.5        0          0          0         
23-010           856.89     11.5       0          0          0         
23-011           857.49     6.67       0          0          0         
23-012           857.56     8.5        0          0          0         
23-013           858.03     8.25       0          0          0         
23-014           858.06     8.75       0          0          0         
24-001           838.2      15         0          0          0         
24-002           826.62     20         0          0          0         
;no manhole, just elbow
24-003A          838.49     30.42      0          0          0         
;elevation from as-builts
24-004           827.46     25         0          0          0         
24-004A          827.67     29         0          0          0         
;elevation from as-builts
24-005           828.03     30.87      0          0          0         
;elevation from as-builts
24-006           828.56     28.64      0          0          0         
24-006A          828.48     3.5        0          100        0         
24-008           841.63     18.57      0          0          0         
24-009           846.11     18.89      0          0          0         
24-010           854.47     19.73      0          0          0         
24-011           862.80     17.59      0          0          0         
24-012           865.7      18.33      0          0          0         
24-013           868.55     20.45      0          0          0         
24-014           871.37     16.63      0          0          0         
24-015           873.81     21.09      0          0          0         
24-016           876.51     19.19      0          0          0         
24-017           878.76     18.64      0          0          0         
24-018           880.98     20.82      0          0          0         
24-019           883.79     23.71      0          0          0         
24-020           886.25     18.75      0          0          0         
24-021           888.21     16.39      0          0          0         
24-022           890.5      15.9       0          0          0         
24-044           845.37     18.63      0          0          0         
24-045           855.47     19.63      0          0          0         
25-001           892.72     16.98      0          0          0         
25-002           895.13     17.87      0          0          0         
25-003           896.91     22.89      0          0          0         
25-004           898.84     23.16      0          0          0         
25-005           900.61     21.49      0          0          0         
25-006           904        19         0          0          0         
25-007           906.71     21.39      0          0          0         
25-008           907.78     22.52      0          0          0         
25-014           908.8      21.73      0          0          0         
25-017           909.08     24.12      0          0          0         
25-019           909.23     25.57      0          0          0         
25-025           909.41     27.69      0          0          0         
25-033           909.85     25.05      0          0          0         
25-034           910.08     24.82      0          0          0         
25-035           910.46     23.14      0          0          0         
25-036           910.95     20.25      0          0          0         
25-037           911.41     20.19      0          0          0         
25-038           911.83     10.97      0          0          0         
25-039           912.21     19.79      0          0          0         
25-040           912.47     19.93      0          0          0         
25-041           922.85     15.05      0          0          0         
25-042           925.46     19.14      0          0          0         
25-043           928.91     21.89      0          0          0         
25-044           932.04     24.96      0          0          0         
25-045           935.36     24.84      0          0          0         
25-046           937.31     20.19      0          0          0         
25-047           939.62     13.48      0          0          0         
25-048           941.77     9.63       0          0          0         
25-049           942.91     8.09       0          0          0         
26-001           912.66     20.24      0          0          0         
26-002           912.92     20.08      0          0          0         
26-003           913.42     17.68      0          0          0         
26-004           913.86     19.44      0          0          0         
26-005           915.62     20.18      0          0          0         
26-006           916.83     23.07      0          0          0         
26-007           917.72     23.58      0          0          0         
26-016           918.82     20.38      0          0          0         
26-017           919.82     23.48      0          0          0         
;Elevation from as-builts
27_022           840.44     15         0          0          0         
;Elevation from as-builts
27-001           837.18     12.52      0          0          0         
;Elevation from as-builts
27-003           837.36     14.94      0          0          0         
;Elevation calculated from 27-003 using as-built
27-004           839.29     15         0          0          0         
;Elevation from as-builts
27-020           837.96     16.04      0          0          0         
;Elevation from as-builts
27-021           838.33     20.17      0          0          0         
;Elevation from as-builts
27-023           842.76     15         0          0          0         
;Elevation from as-builts
27-024           843.78     15         0          0          0         
;Elevation from as-builts
27-025           852.88     15         0          0          0         
;Elevation from as-builts
27-026           854.11     15         0          0          0         
;Elevation from as-builts
27-027           855.09     15         0          0          0         
;Elevation from as-builts
27-028           859.46     15         0          0          0         
;Elevation from as-builts
27-029           861.57     15         0          0          0         
;Elevation from as-builts
27-030           869.31     15         0          0          0         
;Elevation from as-builts
27-031           877.68     15         0          0          0         
;Elevation from as-builts
27-032           881.94     15         0          0          0         
;Elevation from as-builts
27-041           883.98     15         0          0          0         
;Elevation from as-builts
27-042           886.65     15         0          0          0         
;Elevation from as-builts
27-043           889.45     15         0          0          0         
;Elevation from as-builts
27-044           890.62     15         0          0          0         
;Elevation from as-builts
27-045           892.04     15         0          0          0         
;Elevation from as-builts
27-046           893.92     15         0          0          0         
;Elevation from as-builts
27-047           896.02     15         0          0          0         
CrickParallel    857.0      25         0          0          0         
;storm survey shows invert of box sewer to be ~859.75
DryBarrelNode    857        2          0          30         0         
HemmDryNode1     832        1          0          100        0         
HemmDryNode2     832        1          0          100        0         
HemmWetNode1     832        1.5        0          100        0         
HemmWetNode2     832        1.5        0          100        0         
Siphon1-ElbowA   831.65     2          0          100        0         
Siphon1-ElbowB   831.63     2          0          100        0         
Siphon2-ElbowA   831.65     2          0          100        0         
Siphon2-ElbowB   831.63     2          0          100        0         
WetBarrelNode    857        2          0          30         0         
WI_Par-1         831.65     5          0          100        0         
WI_Par-2         831.63     5          0          100        0         

[OUTFALLS]
;;Name           Elevation  Type       Stage Data       Gated    Route To        
;;-------------- ---------- ---------- ---------------- -------- ----------------
;6'x32' from as-builts
EQMH1            838.00     FREE                        NO                       
HemmRdSSO        845        FREE                        NO                       
PiquaSSO         843        FREE                        NO                       
WWTP_Effluent    823        FREE                        NO                       

[STORAGE]
;;Name           Elev.    MaxDepth   InitDepth  Shape      Curve Name/Params            N/A      Fevap    Psi      Ksat     IMD     
;;-------------- -------- ---------- ----------- ---------- ---------------------------- -------- --------          -------- --------