[TITLE]

[OPTIONS]
FLOW_UNITS          	CFS
INFILTRATION        	GREEN_AMPT
FLOW_ROUTING        	DYNWAVE
START_DATE          	01/01/2005
START_TIME          	00:00:00
REPORT_START_DATE   	01/01/2005
REPORT_START_TIME   	00:00:00
END_DATE            	01/30/2005
END_TIME            	00:00:00
SWEEP_START         	01/01
SWEEP_END           	12/31
DRY_DAYS            	0
REPORT_STEP         	00:01:00
WET_STEP            	00:01:00
DRY_STEP            	00:01:00
ROUTING_STEP        	0:00:05 
ALLOW_PONDING       	NO
INERTIAL_DAMPING    	NONE
VARIABLE_STEP       	0.00
LENGTHENING_STEP    	0
MIN_SURFAREA        	0
NORMAL_FLOW_LIMITED 	BOTH
SKIP_STEADY_STATE   	NO
FORCE_MAIN_EQUATION 	H-W
LINK_OFFSETS        	DEPTH
MIN_SLOPE           	0
; Added Parameters for QA/QC
MAX_PROCESSORS      	NO
BYPASS              	YES
ThetaStorage        	NO
MAX_ITERATIONS      	4
MIN_ITERATIONS      	2
TOLERANCE           	0.001
RELAXATION          	0.50
AREAWEIGHT          	1.00
HYDRAULICWEIGHT     	1.00
DWF_GLOBAL          	1.0
RDII_GLOBAL         	1.0
DEPTH_UNITS         	
SaveAllData         	

[FILES]
USE	RAINFALL	"IDS_2005_V2_Mod.rff"

[EVAPORATION]
;;Type      	Parameters
;;----------	----------
CONSTANT    	0.0
DRY_ONLY     NO

[RAINGAGES]
;;              	Rain     	Time  	Snow  	Data      
;;Name          	Type     	Intrvl	Catch 	Source    
;;--------------	---------	------	------	----------
GAGE1           	INTENSITY	0.25  	1.0   	TIMESERIES	RG1             
GAGE2           	VOLUME   	1     	1.0   	TIMESERIES	RG2             
GAGE3           	VOLUME   	1     	1.0   	TIMESERIES	RG3             

[SUBCATCHMENTS]
;;              	                	                	Total   	Pcnt.   	        	Pcnt.   	Curb    	Snow    
;;Name          	Raingage        	Outlet          	Area    	Imperv  	Width   	Slope   	Length  	Pack    
;;--------------	----------------	----------------	--------	--------	--------	--------	--------	--------
1                       	GAGE1           	5               	10      	100     	500     	0.5     	0       	                
2                       	GAGE1           	6               	10      	100     	500     	0.5     	0       	                
3                       	GAGE1           	SR              	10.7    	100     	1365    	0.5     	0       	                
4                       	GAGE1           	8               	5       	50      	500     	0.5     	0       	                
5                       	GAGE3           	10              	1       	0       	500     	5       	0       	                

[SUBAREAS]
;;Subcatchment  	N-Imperv  	N-Perv    	S-Imperv  	S-Perv    	PctZero   	RouteTo   	PctRouted 
;;--------------	----------	----------	----------	----------	----------	----------	----------
1                       	0.01      	0.1       	0.01      	0.001     	0.00001   	OUTLET    
2                       	0.01      	0.1       	0.01      	0.001     	0.00001   	OUTLET    
3                       	0.01      	0.1       	0.05      	0.05      	0.00001   	OUTLET    
4                       	0.01      	0.1       	0.05      	0.05      	0.00001   	OUTLET    
5                       	0.01      	0.01      	0.01      	6         	0.00001   	OUTLET    

[INFILTRATION]
;;Subcatchment  	Suction   	HydCon    	IMDmax    
;;--------------	----------	----------	----------
1                       	6.6       	0.25      	0.217     
2                       	6.6       	0.25      	0.217     
3                       	6.6       	0.25      	0.217     
4                       	6.6       	0.25      	0.217     
5                       	3         	1         	0.3       

[JUNCTIONS]
;;              	Invert    	Max.      	Init.     	Surcharge 	Ponded    
;;Name          	Elev.     	Depth     	Depth     	Depth     	Area      
;;--------------	----------	----------	----------	----------	----------
10              	0.5       	0         	0         	0         	0         

[OUTFALLS]
;;              	Invert    	Outfall   	Stage/Table     	Tide
;;Name          	Elev.     	Type      	Time Series     	Gate
;;--------------	----------	----------	----------------	----
Shed_Outfall    	-2        	FREE      	                	NO
SR_Release      	-2        	FREE      	                	NO
8               	0         	FREE      	                	NO
Stor_Outfall    	-10       	FREE      	                	NO
Overflow        	0         	FREE      	                	NO

[STORAGE]
;;              	Invert  	Max.    	Init.   	Storage   	Curve   	        	        	Ponded  	Evap.   
;;Name          	Elev.   	Depth   	Depth   	Curve     	Params  	        	        	Area    	Frac.   	Infiltration Parameters
;;--------------	--------	--------	--------	----------	--------	--------	--------	--------	--------	-----------------------
6               	0       	10      	0       	TABULAR   	Storag_Test     		        	0       	0       	3       	1       	0.3     
SR              	0       	10      	0       	FUNCTIONAL	7768.2  	0       	0       	0       	0       

[CONDUITS]
;;              	Inlet           	Outlet          	          	Manning   	Inlet     	Outlet    	Init.     	Max.      
;;Name          	Node            	Node            	Length    	N         	Offset    	Offset    	Flow      	Flow      
;;--------------	----------------	----------------	----------	----------	----------	----------	----------	----------
Stor            	6               	Stor_Outfall    	400       	0.013     	3         	0         	0         	0         
Shed            	10              	Shed_Outfall    	500       	0.013     	0         	0         	0         	0         
2               	SR              	Overflow        	400       	0.01      	5         	0         	0         	0         

[ORIFICES]
;;              	Inlet           	Outlet          	Orifice     	Crest     	Disch.    	Flap	Open/Close
;;Name          	Node            	Node            	Type        	Height    	Coeff.    	Gate	Time      
;;--------------	----------------	----------------	------------	----------	----------	----	----------
1               	SR              	SR_Release      	SIDE        	0         	0.6       	NO  	0         

[XSECTIONS]
;;Link          	Shape       	Geom1           	Geom2     	Geom3     	Geom4     	Barrels   	Culvert Code 	Transition	Multipler
;;--------------	------------	----------------	----------	----------	----------	----------	----------	----------	----------
Stor            	RECT_CLOSED 	2               	20        	0         	0         	1         	0         	0         	0         
Shed            	RECT_CLOSED 	2               	20        	0         	0         	1         	0         	0         	0         
2               	RECT_CLOSED 	2               	10        	0         	0         	1         	0         	0         	0         
1               	CIRCULAR    	0.273           	0         	0         	0

[LOSSES]
;;Link          	Inlet     	Outlet    	Average   	Flap Gate 
;;--------------	----------	----------	----------	----------

[CURVES]
;;Name          	Type      	X-Value   	Y-Value   
;;--------------	----------	----------	----------
Storag_Test     	Storage   	0         	21780     
Storag_Test     	          	2         	21780     
Storag_Test     	          	2.05      	10890     
Storag_Test     	          	10        	10890     

[TIMESERIES]
;;Name          	Date      	Time      	Value     
;;--------------	----------	----------	----------
RG1             	1/1/2005  	0:00      	0         
RG1             	1/1/2005  	0:15      	0.5       
RG1             	1/1/2005  	0:30      	0.5       
RG1             	1/1/2005  	0:45      	0.5       
RG1             	1/1/2005  	1:00      	0.5       
RG1             	1/1/2005  	1:15      	0.5       
RG1             	1/1/2005  	1:30      	0.5       
RG1             	1/1/2005  	1:45      	0.5       
RG1             	1/1/2005  	2:00      	0.5       
RG1             	1/1/2005  	2:15      	0.5       
RG1             	1/1/2005  	2:30      	0.5       
RG1             	1/1/2005  	2:45      	0.5       
RG1             	1/1/2005  	3:00      	0.5       
RG1             	1/1/2005  	3:15      	0.5       
RG1             	1/1/2005  	3:30      	0.5       
RG1             	1/1/2005  	3:45      	0.5       
RG1             	1/1/2005  	4:00      	0.5       
RG1             	1/1/2005  	4:15      	0.5       
RG1             	1/1/2005  	4:30      	0.5       
RG1             	1/1/2005  	4:45      	0.5       
RG1             	1/1/2005  	5:00      	0.5       
RG1             	1/1/2005  	5:15      	0.5       
RG1             	1/1/2005  	5:30      	0.5       
RG1             	1/1/2005  	5:45      	0.5       
RG1             	1/1/2005  	6:00      	0.5       
RG1             	1/1/2005  	6:15      	0.5       
RG1             	1/1/2005  	6:30      	0.5       
RG1             	1/1/2005  	6:45      	0.5       
RG1             	1/1/2005  	7:00      	0.5       
RG1             	1/1/2005  	7:15      	0.5       
RG1             	1/1/2005  	7:30      	0.5       
RG1             	1/1/2005  	7:45      	0.5       
RG1             	1/1/2005  	8:00      	0.5       
RG1             	1/1/2005  	8:15      	0.5       
RG1             	1/1/2005  	8:30      	0.5       
RG1             	1/1/2005  	8:45      	0.5       
RG1             	1/1/2005  	9:00      	0.5       
RG1             	1/1/2005  	9:15      	0.5       
RG1             	1/1/2005  	9:30      	0.5       
RG1             	1/1/2005  	9:45      	0.5       
RG1             	1/1/2005  	10:00     	0.5       
RG1             	1/1/2005  	10:15     	0.5       
RG1             	1/1/2005  	10:30     	0.5       
RG1             	1/1/2005  	10:45     	0.5       
RG1             	1/1/2005  	11:00     	0.5       
RG1             	1/1/2005  	11:15     	0.5       
RG1             	1/1/2005  	11:30     	0.5       
RG1             	1/1/2005  	11:45     	0.5       
RG1             	1/1/2005  	12:00     	0.5       
RG1             	1/1/2005  	12:15     	0.5       
RG1             	1/1/2005  	12:30     	0.5       
RG1             	1/1/2005  	12:45     	0.5       
RG1             	1/1/2005  	13:00     	0.5       
RG1             	1/1/2005  	13:15     	0.5       
RG1             	1/1/2005  	13:30     	0.5       
RG1             	1/1/2005  	13:45     	0.5       
RG1             	1/1/2005  	14:00     	0.5       
RG1             	1/1/2005  	14:15     	0.5       
RG1             	1/1/2005  	14:30     	0.5       
RG1             	1/1/2005  	14:45     	0.5       
RG1             	1/1/2005  	15:00     	0.5       
RG1             	1/1/2005  	15:15     	0.5       
RG1             	1/1/2005  	15:30     	0.5       
RG1             	1/1/2005  	15:45     	0.5       
RG1             	1/1/2005  	16:00     	0.5       
RG1             	1/1/2005  	16:15     	0.5       
RG1             	1/1/2005  	16:30     	0.5       
RG1             	1/1/2005  	16:45     	0.5       
RG1             	1/1/2005  	17:00     	0.5       
RG1             	1/1/2005  	17:15     	0.5       
RG1             	1/1/2005  	17:30     	0.5       
RG1             	1/1/2005  	17:45     	0.5       
RG1             	1/1/2005  	18:00     	0.5       
RG1             	1/1/2005  	18:15     	0.5       
RG1             	1/1/2005  	18:30     	0.5       
RG1             	1/1/2005  	18:45     	0.5       
RG1             	1/1/2005  	19:00     	0.5       
RG1             	1/1/2005  	19:15     	0.5       
RG1             	1/1/2005  	19:30     	0.5       
RG1             	1/1/2005  	19:45     	0.5       
RG1             	1/1/2005  	20:00     	0.5       
RG1             	1/1/2005  	20:15     	0.5       
RG1             	1/1/2005  	20:30     	0.5       
RG1             	1/1/2005  	20:45     	0.5       
RG1             	1/1/2005  	21:00     	0.5       
RG1             	1/1/2005  	21:15     	0.5       
RG1             	1/1/2005  	21:30     	0.5       
RG1             	1/1/2005  	21:45     	0.5       
RG1             	1/1/2005  	22:00     	0.5       
RG1             	1/1/2005  	22:15     	0.5       
RG1             	1/1/2005  	22:30     	0.5       
RG1             	1/1/2005  	22:45     	0.5       
RG1             	1/1/2005  	23:00     	0.5       
RG1             	1/1/2005  	23:15     	0.5       
RG1             	1/1/2005  	23:30     	0.5       
RG1             	1/1/2005  	23:45     	0.5       
RG1             	1/2/2005  	0:00      	0.5       
RG1             	1/2/2005  	0:15      	0.5       
RG1             	1/2/2005  	0:30      	0.5       
RG1             	1/2/2005  	0:45      	0.5       
RG1             	1/2/2005  	1:00      	0.5       
RG1             	1/2/2005  	1:15      	0.5       
RG1             	1/2/2005  	1:30      	0.5       
RG1             	1/2/2005  	1:45      	0.5       
RG1             	1/2/2005  	2:00      	0.5       
RG1             	1/2/2005  	2:15      	0.5       
RG1             	1/2/2005  	2:30      	0.5       
RG1             	1/2/2005  	2:45      	0.5       
RG1             	1/2/2005  	3:00      	0.5       
RG1             	1/2/2005  	3:15      	0.5       
RG1             	1/2/2005  	3:30      	0.5       
RG1             	1/2/2005  	3:45      	0.5       
RG1             	1/2/2005  	4:00      	0.5       
RG1             	1/2/2005  	4:15      	0.5       
RG1             	1/2/2005  	4:30      	0.5       
RG1             	1/2/2005  	4:45      	0.5       
RG1             	1/2/2005  	5:00      	0.5       
RG1             	1/2/2005  	5:15      	0.5       
RG1             	1/2/2005  	5:30      	0.5       
RG1             	1/2/2005  	5:45      	0.5       
RG1             	1/2/2005  	6:00      	0.5       
RG1             	1/2/2005  	6:15      	0.5       
RG1             	1/2/2005  	6:30      	0.5       
RG1             	1/2/2005  	6:45      	0.5       
RG1             	1/2/2005  	7:00      	0.5       
RG1             	1/2/2005  	7:15      	0.5       
RG1             	1/2/2005  	7:30      	0.5       
RG1             	1/2/2005  	7:45      	0.5       
RG1             	1/2/2005  	8:00      	0.5       
RG1             	1/2/2005  	8:15      	0.5       
RG1             	1/2/2005  	8:30      	0.5       
RG1             	1/2/2005  	8:45      	0.5       
RG1             	1/2/2005  	9:00      	0.5       
RG1             	1/2/2005  	9:15      	0.5       
RG1             	1/2/2005  	9:30      	0.5       
RG1             	1/2/2005  	9:45      	0.5       
RG1             	1/2/2005  	10:00     	0.5       
RG1             	1/2/2005  	10:15     	0.5       
RG1             	1/2/2005  	10:30     	0.5       
RG1             	1/2/2005  	10:45     	0.5       
RG1             	1/2/2005  	11:00     	0.5       
RG1             	1/2/2005  	11:15     	0.5       
RG1             	1/2/2005  	11:30     	0.5       
RG1             	1/2/2005  	11:45     	0.5       
RG1             	1/2/2005  	12:00     	0.5       
RG1             	1/2/2005  	12:15     	0.5       
RG1             	1/2/2005  	12:30     	0.5       
RG1             	1/2/2005  	12:45     	0.5       
RG1             	1/2/2005  	13:00     	0.5       
RG1             	1/2/2005  	13:15     	0.5       
RG1             	1/2/2005  	13:30     	0.5       
RG1             	1/2/2005  	13:45     	0.5       
RG1             	1/2/2005  	14:00     	0.5       
RG1             	1/2/2005  	14:15     	0.5       
RG1             	1/2/2005  	14:30     	0.5       
RG1             	1/2/2005  	14:45     	0.5       
RG1             	1/2/2005  	15:00     	0.5       
RG1             	1/2/2005  	15:15     	0.5       
RG1             	1/2/2005  	15:30     	0.5       
RG1             	1/2/2005  	15:45     	0.5       
RG1             	1/2/2005  	16:00     	0.5       
RG1             	1/2/2005  	16:15     	0.5       
RG1             	1/2/2005  	16:30     	0.5       
RG1             	1/2/2005  	16:45     	0.5       
RG1             	1/2/2005  	17:00     	0.5       
RG1             	1/2/2005  	17:15     	0.5       
RG1             	1/2/2005  	17:30     	0.5       
RG1             	1/2/2005  	17:45     	0.5       
RG1             	1/2/2005  	18:00     	0.5       
RG1             	1/2/2005  	18:15     	0.5       
RG1             	1/2/2005  	18:30     	0.5       
RG1             	1/2/2005  	18:45     	0.5       
RG1             	1/2/2005  	19:00     	0.5       
RG1             	1/2/2005  	19:15     	0.5       
RG1             	1/2/2005  	19:30     	0.5       
RG1             	1/2/2005  	19:45     	0.5       
RG1             	1/2/2005  	20:00     	0.5       
RG1             	1/2/2005  	20:15     	0.5       
RG1             	1/2/2005  	20:30     	0.5       
RG1             	1/2/2005  	20:45     	0.5       
RG1             	1/2/2005  	21:00     	0.5       
RG1             	1/2/2005  	21:15     	0.5       
RG1             	1/2/2005  	21:30     	0.5       
RG1             	1/2/2005  	21:45     	0.5       
RG1             	1/2/2005  	22:00     	0.5       
RG1             	1/2/2005  	22:15     	0.5       
RG1             	1/2/2005  	22:30     	0.5       
RG1             	1/2/2005  	22:45     	0.5       
RG1             	1/2/2005  	23:00     	0.5       
RG1             	1/2/2005  	23:15     	0.5       
RG1             	1/2/2005  	23:30     	0.5       
RG1             	1/2/2005  	23:45     	0.5       
RG1             	1/3/2005  	0:00      	0.5       
RG1             	1/3/2005  	0:15      	0.5       
RG1             	1/3/2005  	0:30      	0.5       
RG1             	1/3/2005  	0:45      	0.5       
RG1             	1/3/2005  	1:00      	0.5       
RG1             	1/3/2005  	1:15      	0.5       
RG1             	1/3/2005  	1:30      	0.5       
RG1             	1/3/2005  	1:45      	0.5       
RG1             	1/3/2005  	2:00      	0.5       
RG1             	1/3/2005  	2:15      	0.5       
RG1             	1/3/2005  	2:30      	0.5       
RG1             	1/3/2005  	2:45      	0.5       
RG1             	1/3/2005  	3:00      	0.5       
RG1             	1/3/2005  	3:15      	0.5       
RG1             	1/3/2005  	3:30      	0.5       
RG1             	1/3/2005  	3:45      	0.5       
RG1             	1/3/2005  	4:00      	0.5       
RG1             	1/3/2005  	4:15      	0.5       
RG1             	1/3/2005  	4:30      	0.5       
RG1             	1/3/2005  	4:45      	0.5       
RG1             	1/3/2005  	5:00      	0.5       
RG1             	1/3/2005  	5:15      	0.5       
RG1             	1/3/2005  	5:30      	0.5       
RG1             	1/3/2005  	5:45      	0.5       
RG1             	1/3/2005  	6:00      	0.5       
RG1             	1/3/2005  	6:15      	0.5       
RG1             	1/3/2005  	6:30      	0.5       
RG1             	1/3/2005  	6:45      	0.5       
RG1             	1/3/2005  	7:00      	0.5       
RG1             	1/3/2005  	7:15      	0.5       
RG1             	1/3/2005  	7:30      	0.5       
RG1             	1/3/2005  	7:45      	0.5       
RG1             	1/3/2005  	8:00      	0.5       
RG1             	1/3/2005  	8:15      	0.5       
RG1             	1/3/2005  	8:30      	0.5       
RG1             	1/3/2005  	8:45      	0.5       
RG1             	1/3/2005  	9:00      	0.5       
RG1             	1/3/2005  	9:15      	0.5       
RG1             	1/3/2005  	9:30      	0.5       
RG1             	1/3/2005  	9:45      	0.5       
RG1             	1/3/2005  	10:00     	0.5       
RG1             	1/3/2005  	10:15     	0.5       
RG1             	1/3/2005  	10:30     	0.5       
RG1             	1/3/2005  	10:45     	0.5       
RG1             	1/3/2005  	11:00     	0.5       
RG1             	1/3/2005  	11:15     	0.5       
RG1             	1/3/2005  	11:30     	0.5       
RG1             	1/3/2005  	11:45     	0.5       
RG1             	1/3/2005  	12:00     	0.5       
RG1             	1/3/2005  	12:15     	0.5       
RG1             	1/3/2005  	12:30     	0.5       
RG1             	1/3/2005  	12:45     	0.5       
RG1             	1/3/2005  	13:00     	0.5       
RG1             	1/3/2005  	13:15     	0.5       
RG1             	1/3/2005  	13:30     	0.5       
RG1             	1/3/2005  	13:45     	0.5       
RG1             	1/3/2005  	14:00     	0.5       
RG1             	1/3/2005  	14:15     	0.5       
RG1             	1/3/2005  	14:30     	0.5       
RG1             	1/3/2005  	14:45     	0.5       
RG1             	1/3/2005  	15:00     	0.5       
RG1             	1/3/2005  	15:15     	0.5       
RG1             	1/3/2005  	15:30     	0.5       
RG1             	1/3/2005  	15:45     	0.5       
RG1             	1/3/2005  	16:00     	0.5       
RG1             	1/3/2005  	16:15     	0.5       
RG1             	1/3/2005  	16:30     	0.5       
RG1             	1/3/2005  	16:45     	0.5       
RG1             	1/3/2005  	17:00     	0.5       
RG1             	1/3/2005  	17:15     	0.5       
RG1             	1/3/2005  	17:30     	0.5       
RG1             	1/3/2005  	17:45     	0.5       
RG1             	1/3/2005  	18:00     	0.5       
RG1             	1/3/2005  	18:15     	0.5       
RG1             	1/3/2005  	18:30     	0.5       
RG1             	1/3/2005  	18:45     	0.5       
RG1             	1/3/2005  	19:00     	0.5       
RG1             	1/3/2005  	19:15     	0.5       
RG1             	1/3/2005  	19:30     	0.5       
RG1             	1/3/2005  	19:45     	0.5       
RG1             	1/3/2005  	20:00     	0.5       
RG1             	1/3/2005  	20:15     	0.5       
RG1             	1/3/2005  	20:30     	0.5       
RG1             	1/3/2005  	20:45     	0.5       
RG1             	1/3/2005  	21:00     	0.5       
RG1             	1/3/2005  	21:15     	0.5       
RG1             	1/3/2005  	21:30     	0.5       
RG1             	1/3/2005  	21:45     	0.5       
RG1             	1/3/2005  	22:00     	0.5       
RG1             	1/3/2005  	22:15     	0.5       
RG1             	1/3/2005  	22:30     	0.5       
RG1             	1/3/2005  	22:45     	0.5       
RG1             	1/3/2005  	23:00     	0.5       
RG1             	1/3/2005  	23:15     	0.5       
RG1             	1/3/2005  	23:30     	0.5       
RG1             	1/3/2005  	23:45     	0.5       
RG1             	1/4/2005  	0:00      	0.5       
RG1             	1/4/2005  	0:15      	0.5       
RG1             	1/4/2005  	0:30      	0.5       
RG1             	1/4/2005  	0:45      	0.5       
RG1             	1/4/2005  	1:00      	0.5       
RG1             	1/4/2005  	1:15      	0.5       
RG1             	1/4/2005  	1:30      	0.5       
RG1             	1/4/2005  	1:45      	0.5       
RG1             	1/4/2005  	2:00      	0.5       
RG1             	1/4/2005  	2:15      	0.5       
RG1             	1/4/2005  	2:30      	0.5       
RG1             	1/4/2005  	2:45      	0.5       
RG1             	1/4/2005  	3:00      	0.5       
RG1             	1/4/2005  	3:15      	0.5       
RG1             	1/4/2005  	3:30      	0.5       
RG1             	1/4/2005  	3:45      	0.5       
RG1             	1/4/2005  	4:00      	0.5       
RG1             	1/4/2005  	4:15      	0.5       
RG1             	1/4/2005  	4:30      	0.5       
RG1             	1/4/2005  	4:45      	0.5       
RG1             	1/4/2005  	5:00      	0.5       
RG1             	1/4/2005  	5:15      	0.5       
RG1             	1/4/2005  	5:30      	0.5       
RG1             	1/4/2005  	5:45      	0.5       
RG1             	1/4/2005  	6:00      	0.5       
RG1             	1/4/2005  	6:15      	0.5       
RG1             	1/4/2005  	6:30      	0.5       
RG1             	1/4/2005  	6:45      	0.5       
RG1             	1/4/2005  	7:00      	0.5       
RG1             	1/4/2005  	7:15      	0.5       
RG1             	1/4/2005  	7:30      	0.5       
RG1             	1/4/2005  	7:45      	0.5       
RG1             	1/4/2005  	8:00      	0.5       
RG1             	1/4/2005  	8:15      	0.5       
RG1             	1/4/2005  	8:30      	0.5       
RG1             	1/4/2005  	8:45      	0.5       
RG1             	1/4/2005  	9:00      	0.5       
RG1             	1/4/2005  	9:15      	0.5       
RG1             	1/4/2005  	9:30      	0.5       
RG1             	1/4/2005  	9:45      	0.5       
RG1             	1/4/2005  	10:00     	0.5       
RG1             	1/4/2005  	10:15     	0.5       
RG1             	1/4/2005  	10:30     	0.5       
RG1             	1/4/2005  	10:45     	0.5       
RG1             	1/4/2005  	11:00     	0.5       
RG1             	1/4/2005  	11:15     	0.5       
RG1             	1/4/2005  	11:30     	0.5       
RG1             	1/4/2005  	11:45     	0.5       
RG1             	1/4/2005  	12:00     	0.5       
RG1             	1/4/2005  	12:15     	0.5       
RG1             	1/4/2005  	12:30     	0.5       
RG1             	1/4/2005  	12:45     	0.5       
RG1             	1/4/2005  	13:00     	0.5       
RG1             	1/4/2005  	13:15     	0.5       
RG1             	1/4/2005  	13:30     	0.5       
RG1             	1/4/2005  	13:45     	0.5       
RG1             	1/4/2005  	14:00     	0.5       
RG1             	1/4/2005  	14:15     	0.5       
RG1             	1/4/2005  	14:30     	0.5       
RG1             	1/4/2005  	14:45     	0.5       
RG1             	1/4/2005  	15:00     	0.5       
RG1             	1/4/2005  	15:15     	0.5       
RG1             	1/4/2005  	15:30     	0.5       
RG1             	1/4/2005  	15:45     	0.5       
RG1             	1/4/2005  	16:00     	0.5       
RG1             	1/4/2005  	16:15     	0.5       
RG1             	1/4/2005  	16:30     	0.5       
RG1             	1/4/2005  	16:45     	0.5       
RG1             	1/4/2005  	17:00     	0.5       
RG1             	1/4/2005  	17:15     	0.5       
RG1             	1/4/2005  	17:30     	0.5       
RG1             	1/4/2005  	17:45     	0.5       
RG1             	1/4/2005  	18:00     	0.5       
RG1             	1/4/2005  	18:15     	0.5       
RG1             	1/4/2005  	18:30     	0.5       
RG1             	1/4/2005  	18:45     	0.5       
RG1             	1/4/2005  	19:00     	0.5       
RG1             	1/4/2005  	19:15     	0.5       
RG1             	1/4/2005  	19:30     	0.5       
RG1             	1/4/2005  	19:45     	0.5       
RG1             	1/4/2005  	20:00     	0.5       
RG1             	1/4/2005  	20:15     	0.5       
RG1             	1/4/2005  	20:30     	0.5       
RG1             	1/4/2005  	20:45     	0.5       
RG1             	1/4/2005  	21:00     	0.5       
RG1             	1/4/2005  	21:15     	0.5       
RG1             	1/4/2005  	21:30     	0.5       
RG1             	1/4/2005  	21:45     	0.5       
RG1             	1/4/2005  	22:00     	0.5       
RG1             	1/4/2005  	22:15     	0.5       
RG1             	1/4/2005  	22:30     	0.5       
RG1             	1/4/2005  	22:45     	0.5       
RG1             	1/4/2005  	23:00     	0.5       
RG1             	1/4/2005  	23:15     	0.5       
RG1             	1/4/2005  	23:30     	0.5       
RG1             	1/4/2005  	23:45     	0.5       
RG1             	1/5/2005  	0:00      	0.5       
RG1             	1/5/2005  	0:15      	0.5       
RG1             	1/5/2005  	0:30      	0.5       
RG1             	1/5/2005  	0:45      	0.5       
RG1             	1/5/2005  	1:00      	0.5       
RG1             	1/5/2005  	1:15      	0.5       
RG1             	1/5/2005  	1:30      	0.5       
RG1             	1/5/2005  	1:45      	0.5       
RG1             	1/5/2005  	2:00      	0.5       
RG1             	1/5/2005  	2:15      	0.5       
RG1             	1/5/2005  	2:30      	0.5       
RG1             	1/5/2005  	2:45      	0.5       
RG1             	1/5/2005  	3:00      	0.5       
RG1             	1/5/2005  	3:15      	0.5       
RG1             	1/5/2005  	3:30      	0.5       
RG1             	1/5/2005  	3:45      	0.5       
RG1             	1/5/2005  	4:00      	0.5       
RG1             	1/5/2005  	4:15      	0.5       
RG1             	1/5/2005  	4:30      	0.5       
RG1             	1/5/2005  	4:45      	0.5       
RG1             	1/5/2005  	5:00      	0.5       
RG1             	1/5/2005  	5:15      	0.5       
RG1             	1/5/2005  	5:30      	0.5       
RG1             	1/5/2005  	5:45      	0.5       
RG1             	1/5/2005  	6:00      	0.5       
RG1             	1/5/2005  	6:15      	0.5       
RG1             	1/5/2005  	6:30      	0.5       
RG1             	1/5/2005  	6:45      	0.5       
RG1             	1/5/2005  	7:00      	0.5       
RG1             	1/5/2005  	7:15      	0.5       
RG1             	1/5/2005  	7:30      	0.5       
RG1             	1/5/2005  	7:45      	0.5       
RG1             	1/5/2005  	8:00      	0.5       
RG1             	1/5/2005  	8:15      	0.5       
RG1             	1/5/2005  	8:30      	0.5       
RG1             	1/5/2005  	8:45      	0.5       
RG1             	1/5/2005  	9:00      	0.5       
RG1             	1/5/2005  	9:15      	0.5       
RG1             	1/5/2005  	9:30      	0.5       
RG1             	1/5/2005  	9:45      	0.5       
RG1             	1/5/2005  	10:00     	0.5       
RG1             	1/5/2005  	10:15     	0.5       
RG1             	1/5/2005  	10:30     	0.5       
RG1             	1/5/2005  	10:45     	0.5       
RG1             	1/5/2005  	11:00     	0.5       
RG1             	1/5/2005  	11:15     	0.5       
RG1             	1/5/2005  	11:30     	0.5       
RG1             	1/5/2005  	11:45     	0.5       
RG1             	1/5/2005  	12:00     	0.5       
RG1             	1/5/2005  	12:15     	0.5       
RG1             	1/5/2005  	12:30     	0.5       
RG1             	1/5/2005  	12:45     	0.5       
RG1             	1/5/2005  	13:00     	0.5       
RG1             	1/5/2005  	13:15     	0.5       
RG1             	1/5/2005  	13:30     	0.5       
RG1             	1/5/2005  	13:45     	0.5       
RG1             	1/5/2005  	14:00     	0.5       
RG1             	1/5/2005  	14:15     	0.5       
RG1             	1/5/2005  	14:30     	0.5       
RG1             	1/5/2005  	14:45     	0.5       
RG1             	1/5/2005  	15:00     	0.5       
RG1             	1/5/2005  	15:15     	0.5       
RG1             	1/5/2005  	15:30     	0.5       
RG1             	1/5/2005  	15:45     	0.5       
RG1             	1/5/2005  	16:00     	0.5       
RG1             	1/5/2005  	16:15     	0.5       
RG1             	1/5/2005  	16:30     	0.5       
RG1             	1/5/2005  	16:45     	0.5       