[TITLE]
Scenario Run :  BASE
Testsystem
5.0.0015 - 5.0.021
D=15 min Rainfall
06.05.2011 12:04:48

[OPTIONS]
;Option and Files Scenario Set: BASE, Base Simulation Options
FLOW_UNITS	LPS
INFILTRATION	HORTON
FLOW_ROUTING	DYNWAVE
ALLOW_PONDING	YES
DRY_DAYS	0.000000
SKIP_STEADY_STATE 	NO
IGNORE_RAINFALL	NO
IGNORE_SNOWMELT	NO
IGNORE_GROUNDWATER	NO
IGNORE_QUALITY	NO
FORCE_MAIN_EQUATION	D-W
LINK_OFFSETS	DEPTH
MIN_SLOPE	0.000000
START_DATE	06/01/2002
START_TIME	12:00
END_DATE	06/01/2002
END_TIME	15:00
REPORT_START_DATE	06/01/2002
REPORT_START_TIME	12:00
SWEEP_START	01/01
SWEEP_END	12/31
WET_STEP	00:01:00
DRY_STEP	01:00:00
ROUTING_STEP	1
REPORT_STEP	00:01:00
INERTIAL_DAMPING	NONE
VARIABLE_STEP	0.750000
MINIMUM_STEP	0.5
LENGTHENING_STEP	0
MIN_SURFAREA	0.000000
NORMAL_FLOW_LIMITED	BOTH
MAX_TRIALS	4
HEAD_TOLERANCE	0.010000

[FILES]
USE INFLOWS	"C:\Documents and Settings\Robert E Dickinson\Desktop\Inflow.txt"

[RAINGAGES]
1	VOLUME	24.000000	1.000000	TIMESERIES	EULER		

[HYDROGRAPHS]

[EVAPORATION]
CONSTANT	0.000000
DRY_ONLY	NO

[TEMPERATURE]

[ADJUSTMENTS]

[SUBCATCHMENTS]

[SUBAREAS]

[INFILTRATION]

[AQUIFERS]

[GROUNDWATER]

[GWF]

[SNOWPACKS]

[JUNCTIONS]
733	103.670000	3.670000	0.000000	0.000000	100.000000
734	103.510000	3.310000	0.000000	0.000000	100.000000
735	103.230000	3.440000	0.000000	0.000000	100.000000
736	102.840000	3.360000	0.000000	0.000000	100.000000
737	102.410000	3.330000	0.000000	0.000000	100.000000
738	101.990000	3.230000	0.000000	0.000000	100.000000
739	101.560000	3.200000	0.000000	0.000000	100.000000
740	101.250000	3.310000	0.000000	0.000000	100.000000
741	101.520000	3.000000	0.000000	0.000000	100.000000
742	101.980000	3.690000	0.000000	0.000000	100.000000
743	100.920000	3.910000	0.000000	0.000000	100.000000
744	100.510000	3.610000	0.000000	0.000000	100.000000
745	101.050000	3.560000	0.000000	0.000000	100.000000
746	100.630000	3.470000	0.000000	0.000000	100.000000
747	100.160000	3.340000	0.000000	0.000000	100.000000
748	99.888000	3.160000	0.000000	0.000000	100.000000
749	99.557000	3.170000	0.000000	0.000000	100.000000
750	99.288000	3.530000	0.000000	0.000000	100.000000
751	99.090000	3.110000	0.000000	0.000000	100.000000
RRKA	97.200000	4.800000	0.000000	0.000000	100.000000
TBA	99.050000	3.150000	0.000000	0.000000	100.000000
TBB	98.900000	3.300000	0.000000	0.000000	100.000000

[OUTFALLS]
754	98.873000	FREE	NO
RRKB	97.050000	FREE	NO

[DIVIDERS]

[STORAGE]

[CONDUITS]
733	733	735	39.900000	0.013000	0.000000	0.000000	0.000000	0.000000
734	734	735	25.100000	0.013000	0.000000	0.000000	0.000000	0.000000
735	735	736	38.300000	0.013000	0.000000	0.000000	0.000000	0.000000
736	736	737	40.500000	0.013000	0.000000	0.000000	0.000000	0.000000
737	737	738	43.200000	0.013000	0.000000	0.000000	0.000000	0.000000
738	738	739	42.100000	0.013000	0.000000	0.000000	0.000000	0.000000
739	739	740	30.000000	0.013000	0.000000	0.000000	0.000000	0.000000
740	740	743	36.000000	0.013000	0.000000	0.000000	0.000000	0.000000
741	741	743	57.500000	0.013000	0.000000	0.000000	0.000000	0.000000
742	742	743	50.700000	0.013000	0.000000	0.000000	0.000000	0.000000
743	743	744	38.300000	0.013000	0.000000	0.000000	0.000000	0.000000
744	744	747	34.800000	0.013000	0.000000	0.000000	0.000000	0.000000
745	745	746	41.700000	0.013000	0.000000	0.000000	0.000000	0.000000
746	746	747	42.400000	0.013000	0.000000	0.000000	0.000000	0.000000
747	747	748	29.100000	0.013000	0.000000	0.000000	0.000000	0.000000
748	748	749	28.000000	0.013000	0.000000	0.000000	0.000000	0.000000
749	749	750	13.200000	0.013000	0.000000	0.000000	0.000000	0.000000
750	750	751	30.150000	0.013000	0.000000	0.000000	0.000000	0.000000
751	751	TBA	5.000000	0.013000	0.000000	0.000000	0.000000	0.000000
RRKA1	RRKA	RRKB	30.000000	0.013000	0.000000	0.000000	0.000000	0.000000
TBB	TBB	RRKA	2.500000	0.013000	0.000000	1.600000	0.000000	0.000000
TBDR	TBA	754	31.700000	0.013000	0.000000	0.000000	0.000000	0.000000

[PUMPS]

[ORIFICES]

[WEIRS]
TBWR	TBA	TBB	SIDEFLOW	0.269000	1.475000	NO	0	0.000000	YES

[XSECTIONS]
733	CIRCULAR	0.300000	0.000000	0.000000	0.000000	1	0
734	CIRCULAR	0.300000	0.000000	0.000000	0.000000	1	0
735	CIRCULAR	0.300000	0.000000	0.000000	0.000000	1	0
736	CIRCULAR	0.300000	0.000000	0.000000	0.000000	1	0
737	CIRCULAR	0.300000	0.000000	0.000000	0.000000	1	0
738	CIRCULAR	0.300000	0.000000	0.000000	0.000000	1	0
739	CIRCULAR	0.300000	0.000000	0.000000	0.000000	1	0
740	CIRCULAR	0.300000	0.000000	0.000000	0.000000	1	0
741	CIRCULAR	0.300000	0.000000	0.000000	0.000000	1	0
742	CIRCULAR	0.300000	0.000000	0.000000	0.000000	1	0
743	CIRCULAR	0.350000	0.000000	0.000000	0.000000	1	0
744	CIRCULAR	0.350000	0.000000	0.000000	0.000000	1	0
745	CIRCULAR	0.300000	0.000000	0.000000	0.000000	1	0
746	CIRCULAR	0.300000	0.000000	0.000000	0.000000	1	0
747	CIRCULAR	0.400000	0.000000	0.000000	0.000000	1	0
748	CIRCULAR	0.400000	0.000000	0.000000	0.000000	1	0
749	CIRCULAR	0.400000	0.000000	0.000000	0.000000	1	0
750	CIRCULAR	0.600000	0.000000	0.000000	0.000000	1	0
751	CIRCULAR	0.600000	0.000000	0.000000	0.000000	1	0
RRKA1	CIRCULAR	2.200000	0.000000	0.000000	0.000000	1	0
TBB	CIRCULAR	0.600000	0.000000	0.000000	0.000000	1	0
TBDR	CIRCULAR	0.600000	0.000000	0.000000	0.000000	1	0
TBWR	RECT_OPEN	2.000000	4.000000	0.000000	0.000000

[TRANSECTS]

[LOSSES]
733	0.000000	0.000000	0.000000	NO	0.000000
734	0.000000	0.000000	0.000000	NO	0.000000
735	0.000000	0.000000	0.000000	NO	0.000000
736	0.000000	0.000000	0.000000	NO	0.000000
737	0.000000	0.000000	0.000000	NO	0.000000
738	0.000000	0.000000	0.000000	NO	0.000000
739	0.000000	0.000000	0.000000	NO	0.000000
740	0.000000	0.000000	0.000000	NO	0.000000
741	0.000000	0.000000	0.000000	NO	0.000000
742	0.000000	0.000000	0.000000	NO	0.000000
743	0.000000	0.000000	0.000000	NO	0.000000
744	0.000000	0.000000	0.000000	NO	0.000000
745	0.000000	0.000000	0.000000	NO	0.000000
746	0.000000	0.000000	0.000000	NO	0.000000
747	0.000000	0.000000	0.000000	NO	0.000000
748	0.000000	0.000000	0.000000	NO	0.000000
749	0.000000	0.000000	0.000000	NO	0.000000
750	0.000000	0.000000	0.000000	NO	0.000000
751	0.000000	0.000000	0.000000	NO	0.000000
RRKA1	0.000000	0.000000	0.000000	NO	0.000000
TBB	0.000000	0.000000	0.000000	NO	0.000000
TBDR	0.000000	0.000000	0.000000	NO	0.000000

[CONTROLS]

[POLLUTANTS]

[LANDUSES]

[COVERAGES]

[BUILDUP]

[WASHOFF]

[TREATMENT]

[INFLOWS]

[DWF]

[RDII]

[LOADINGS]

[CURVES]

[TIMESERIES]
EULER	00:00	0.000000


[PATTERNS]

[REPORT]
;Report Option Set: BASE, Base Simulation Report
INPUT YES
CONTINUITY YES
FLOWSTATS YES
CONTROLS YES
SUBCATCHMENTS  ALL
NODES  ALL
LINKS  ALL

[COORDINATES]
733	3472710.870000	5512129.370000
734	3472689.990000	5512165.640000
735	3472675.040000	5512145.750000
736	3472650.800000	5512116.070000
737	3472624.300000	5512085.440000
738	3472596.360000	5512052.810000
739	3472568.990000	5512020.990000
740	3472549.720000	5511998.170000
741	3472470.060000	5511999.130000
742	3472567.900000	5511955.100000
743	3472522.050000	5511975.210000
744	3472492.650000	5511950.740000
745	3472544.450000	5511898.310000
746	3472505.760000	5511912.760000
747	3472466.170000	5511928.080000
748	3472444.000000	5511909.710000
749	3472422.490000	5511891.760000
750	3472420.000000	5511878.900000
751	3472409.560000	5511849.780000
754	3472380.700000	5511861.590000
RRKA	3472404.670000	5511847.190000
RRKB	3472370.750000	5511851.560000
TBA	3472406.170000	5511851.160000
TBB	3472405.320000	5511849.020000


[POLYGONS]

[VERTICES]


[SYMBOLS]
1	0.000000	0.000000

[MAP]
DIMENSIONS	-173635.543500	-275608.282000	3646346.413500	5787773.922000

