[TITLE]
Scenario Run :  BASE

[OPTIONS]
;Option and Files Scenario Set: SNYDER
FLOW_UNITS	LPS
INFILTRATION	CURVE_NUMBER
FLOW_ROUTING	DYNWAVE
ALLOW_PONDING	NO
DRY_DAYS	7.000000
SKIP_STEADY_STATE 	NO
IGNORE_RAINFALL	NO
IGNORE_SNOWMELT	NO
IGNORE_GROUNDWATER	NO
IGNORE_QUALITY	NO
FORCE_MAIN_EQUATION	H-W
LINK_OFFSETS	DEPTH
MIN_SLOPE	0.000000
SYS_FLOW_TOL	5
LAT_FLOW_TOL	5
START_DATE	07/15/1977
START_TIME	00:00
END_DATE	07/16/1977
END_TIME	00:00
REPORT_START_DATE	07/15/1977
REPORT_START_TIME	00:00
SWEEP_START	01/01
SWEEP_END	12/31
WET_STEP	00:01:00
DRY_STEP	00:01:00
ROUTING_STEP	30
REPORT_STEP	00:10:00
INERTIAL_DAMPING	NONE
VARIABLE_STEP	0.250000
MINIMUM_STEP	1.000000
LENGTHENING_STEP	0
MIN_SURFAREA	12.566000
NORMAL_FLOW_LIMITED	BOTH
MAX_TRIALS	4
HEAD_TOLERANCE	0.005000

[FILES]

[RAINGAGES]
GAGE1	INTENSITY	0.083333	1.000000	TIMESERIES	RAINSERIES1		

[HYDROGRAPHS]
; 
2050RTK	GAGE1
2050RTK	ALL	Short	0.020000	1.000000	1.000000	1.000000	1.000000	0.000000
2050RTK	ALL	Medium	0.020000	2.000000	2.000000	1.000000	1.000000	0.000000
2050RTK	ALL	Long	0.020000	3.000000	3.000000	1.000000	1.000000	0.000000
; 
BASERTK	GAGE1
BASERTK	ALL	Short	0.010000	1.000000	2.000000	1.000000	1.000000	0.000000
BASERTK	ALL	Medium	0.010000	2.000000	3.000000	1.000000	1.000000	0.000000
BASERTK	ALL	Long	0.010000	3.000000	4.000000	1.000000	1.000000	0.000000

[EVAPORATION]
CONSTANT	1.000000
DRY_ONLY	NO

[TEMPERATURE]
; BASE Run Climatology Settings
TIMESERIES	TEMP1977
WINDSPEED	MONTHLY	0.000000	0.000000	0.000000	0.000000	0.000000	0.000000	0.000000	0.000000	0.000000	0.000000	0.000000	0.000000
SNOWMELT		34.000000	0.500000	0.600000	0.000000	50.000000	0.000000
ADC	IMPERVIOUS	1.000000	1.000000	1.000000	1.000000	1.000000	1.000000	1.000000	1.000000	1.000000	1.000000
ADC	PERVIOUS	1.000000	1.000000	1.000000	1.000000	1.000000	1.000000	1.000000	1.000000	1.000000	1.000000

[ADJUSTMENTS]
TEMPERATURE	0.000000	1.000000	1.000000	1.000000	1.000000	1.000000	1.000000	1.000000	1.000000	1.000000	1.000000	1.000000
EVAPORATION	0.000000	0.010000	0.010000	0.010000	0.010000	0.010000	0.010000	0.010000	0.010000	0.010000	0.010000	0.010000
RAINFALL	0.750000	0.750000	0.750000	0.750000	0.750000	0.750000	0.750000	0.750000	0.750000	0.750000	0.750000	0.750000
CONDUCTIVITY	0.750000	0.750000	0.750000	0.750000	0.750000	0.750000	0.750000	0.750000	0.750000	0.750000	0.750000	0.750000

[SUBCATCHMENTS]
CA-1	GAGE1	P001	100.000000	50.000000	500.000000	1.000000	0.000000	SNOWPACK100
CA-11	GAGE1	FLOWFROMSUB	100.000000	50.000000	500.000000	1.000000	0.000000	SNOWPACK100
CA-7	GAGE1	P005	100.000000	50.000000	500.000000	1.000000	0.000000	SNOWPACK100
CA-8	GAGE1	P009	100.000000	50.000000	500.000000	1.000000	0.000000	SNOWPACK100

[SUBAREAS]
CA-1	0.015000	0.410000	0.060000	0.200000	25.000000	OUTLET
CA-11	0.015000	0.410000	0.060000	0.200000	25.000000	OUTLET
CA-7	0.015000	0.410000	0.060000	0.200000	25.000000	OUTLET
CA-8	0.015000	0.410000	0.060000	0.200000	25.000000	OUTLET

[INFILTRATION]
CA-1	90.000000	1.000000	1.000000
CA-11	90.000000	1.000000	1.000000
CA-7	90.000000	1.000000	1.000000
CA-8	90.000000	1.000000	1.000000

[AQUIFERS]
MONROVIA	0.479000	0.251000	0.371000	5.000000	10.000000	15.000000	0.350000	14.000000	0.002000	0.000000	10.000000	0.300000

[GROUNDWATER]
CA-1	MONROVIA	P001	5.000000	0.010000	1.000000	0.010000	1.000000	0.000000	0.000000	2.000000	1.000000	2.000000	0.500000
CA-11	MONROVIA	FLOWFROMSUB	5.000000	0.010000	1.000000	0.010000	1.000000	0.000000	0.000000	2.000000	1.000000	2.000000	0.500000
CA-7	MONROVIA	P005	5.000000	0.010000	1.000000	0.010000	1.000000	0.000000	0.000000	2.000000	1.000000	2.000000	0.500000
CA-8	MONROVIA	P009	5.000000	0.010000	1.000000	0.010000	1.000000	0.000000	0.000000	2.000000	1.000000	2.000000	0.500000

[GWF]
CA-1  DEEP	Ksat*Hgw/Hsw
CA-11  DEEP	Ksat*Hgw/Hsw
CA-7  DEEP	Ksat*Hgw/Hsw
CA-8  DEEP	Ksat*Hgw/Hsw

[SNOWPACKS]
SNOWPACK100	PLOWABLE	0.001000	0.001000	32.000000	0.100000	0.000000	0.000000	0.000000
SNOWPACK100	IMPERVIOUS	0.001000	0.001000	32.000000	0.100000	0.000000	0.000000	0.000000
SNOWPACK100	PERVIOUS	0.001000	0.001000	32.000000	0.100000	0.000000	0.000000	0.000000
SNOWPACK100	REMOVAL	0.000000	0.000000	0.000000	0.000000	0.000000	0.000000

[LID_CONTROLS]
RB	RB
RB	STORAGE	100.000000	0.750000	0.500000	0.000000
RB	DRAIN	5.000000	0.500000	6.000000	1.000000

RAINGARDEN	BC
RAINGARDEN	SURFACE	2.000000	0.100000	0.100000	1.000000	5.000000
RAINGARDEN	SOIL	50.000000	0.500000	0.200000	0.100000	0.500000	10.000000	3.500000
RAINGARDEN	STORAGE	0.000000	0.750000	0.500000	0.000000
RAINGARDEN	DRAIN	0.000000	0.500000	6.000000	6.000000

SWALE	VS
SWALE	SURFACE	10.000000	0.100000	0.100000	1.000000	5.000000

TRENCH	IT
TRENCH	SURFACE	10.000000	0.100000	0.100000	1.000000	5.000000
TRENCH	STORAGE	10.000000	0.750000	10.000000	0.000000
TRENCH	DRAIN	1.000000	0.500000	0.000000	6.000000


[LID_USAGE]
CA-1	RAINGARDEN	5	2000.000000	4.000000	0.000000	22.000000	1	"D:\SWMMandSoftware\SWMM5.013_June2018\EPASWMM5.1.013\Swmm5.1.013UpdateTests\SWMM5_NCIMM\CA-1_RAINGARDEN.txt"
CA-1	RB	10	1000.000000	4.000000	0.000000	22.000000	1	"D:\SWMMandSoftware\SWMM5.013_June2018\EPASWMM5.1.013\Swmm5.1.013UpdateTests\SWMM5_NCIMM\CA-1_RB.txt"
CA-8	RAINGARDEN	5	2000.000000	4.000000	0.000000	22.000000	1	"D:\SWMMandSoftware\SWMM5.013_June2018\EPASWMM5.1.013\Swmm5.1.013UpdateTests\SWMM5_NCIMM\CA-8_RAINGARDEN.txt"
CA-8	RB	10	1000.000000	4.000000	0.000000	22.000000	1	"D:\SWMMandSoftware\SWMM5.013_June2018\EPASWMM5.1.013\Swmm5.1.013UpdateTests\SWMM5_NCIMM\CA-8_RB.txt"
CA-7	RAINGARDEN	5	2000.000000	4.000000	0.000000	22.000000	1	"D:\SWMMandSoftware\SWMM5.013_June2018\EPASWMM5.1.013\Swmm5.1.013UpdateTests\SWMM5_NCIMM\CA-7_RAINGARDEN.txt"
CA-7	RB	10	1000.000000	4.000000	0.000000	22.000000	1	"D:\SWMMandSoftware\SWMM5.013_June2018\EPASWMM5.1.013\Swmm5.1.013UpdateTests\SWMM5_NCIMM\CA-7_RB.txt"
CA-1	SWALE	10	1000.000000	4.000000	0.000000	22.000000	1	"D:\SWMMandSoftware\SWMM5.013_June2018\EPASWMM5.1.013\Swmm5.1.013UpdateTests\SWMM5_NCIMM\CA-1_SWALE.txt"
CA-7	SWALE	10	1000.000000	4.000000	0.000000	22.000000	1	"D:\SWMMandSoftware\SWMM5.013_June2018\EPASWMM5.1.013\Swmm5.1.013UpdateTests\SWMM5_NCIMM\CA-7_SWALE.txt"
CA-8	SWALE	10	1000.000000	4.000000	0.000000	22.000000	1	"D:\SWMMandSoftware\SWMM5.013_June2018\EPASWMM5.1.013\Swmm5.1.013UpdateTests\SWMM5_NCIMM\CA-8_SWALE.txt"
CA-1	TRENCH	10	1000.000000	4.000000	0.000000	22.000000	1	"D:\SWMMandSoftware\SWMM5.013_June2018\EPASWMM5.1.013\Swmm5.1.013UpdateTests\SWMM5_NCIMM\CA-1_TRENCH.txt"
CA-7	TRENCH	10	1000.000000	4.000000	0.000000	22.000000	1	"D:\SWMMandSoftware\SWMM5.013_June2018\EPASWMM5.1.013\Swmm5.1.013UpdateTests\SWMM5_NCIMM\CA-7_TRENCH.txt"
CA-8	TRENCH	10	1000.000000	4.000000	0.000000	22.000000	1	"D:\SWMMandSoftware\SWMM5.013_June2018\EPASWMM5.1.013\Swmm5.1.013UpdateTests\SWMM5_NCIMM\CA-8_TRENCH.txt"
CA-11	RAINGARDEN	5	20000.000000	4.000000	0.000000	22.000000	1	"D:\SWMMandSoftware\SWMM5.013_June2018\EPASWMM5.1.013\Swmm5.1.013UpdateTests\SWMM5_NCIMM\CA-11_RAINGARDEN.txt"
CA-11	RB	10	1000.000000	4.000000	0.000000	22.000000	1	"D:\SWMMandSoftware\SWMM5.013_June2018\EPASWMM5.1.013\Swmm5.1.013UpdateTests\SWMM5_NCIMM\CA-11_RB.txt"
CA-11	SWALE	10	33000.000000	4.000000	0.000000	22.000000	1	"D:\SWMMandSoftware\SWMM5.013_June2018\EPASWMM5.1.013\Swmm5.1.013UpdateTests\SWMM5_NCIMM\CA-11_SWALE.txt"
CA-11	TRENCH	10	1000.000000	4.000000	0.000000	22.000000	1	"D:\SWMMandSoftware\SWMM5.013_June2018\EPASWMM5.1.013\Swmm5.1.013UpdateTests\SWMM5_NCIMM\CA-11_TRENCH.txt"

[JUNCTIONS]
FLOWFROMSUB	5.000000	6.000000	0.000000	0.000000	0.000000
OVERLANDNODE	10.000000	1.000000	0.000000	0.000000	0.000000
P001	1.100000	20.000000	0.000000	0.000000	0.000000
P009	3.600000	20.000000	0.000000	0.000000	0.000000

[OUTFALLS]
OUTLET	0.000000	FREE	NO

[DIVIDERS]

[STORAGE]
P005	1.580000	20.000000	0.000000	FUNCTIONAL	1000.000000	0.000000	0.000000	0.000000	1.000000

[CONDUITS]
CDT-11	OVERLANDNODE	P005	655.000000	0.024000	0.000000	0.000000	0.000000	0.000000
P001	P001	OUTLET	220.000000	0.015000	0.000000	0.000000	0.000000	0.000000
P005	P005	P001	240.000000	0.015000	0.000000	0.000000	0.000000	0.000000
P009	P009	P005	505.000000	0.024000	0.000000	0.000000	0.000000	0.000000
P011	FLOWFROMSUB	P005	655.000000	0.024000	0.000000	0.000000	0.000000	0.000000

[PUMPS]

[ORIFICES]

[WEIRS]
1	FLOWFROMSUB	P009	V-NOTCH	0.100000	3.330000	NO	0	0.000000	YES

[XSECTIONS]
CDT-11	CUSTOM	1.000000	CUNETTE	0.000000	0.000000	1
P001	CIRCULAR	4.000000	0.000000	0.000000	0.000000	1	0
P005	CIRCULAR	3.000000	0.000000	0.000000	0.000000	1	0
P009	CIRCULAR	2.250000	0.000000	0.000000	0.000000	1	0
P011	CIRCULAR	2.500000	0.000000	0.000000	0.000000	1	0
1	TRIANGULAR	1.000000	1.000000	0.000000	0.000000

[TRANSECTS]

[LOSSES]
CDT-11	0.000000	0.000000	0.000000	NO	0.000000
P001	0.000000	0.000000	0.000000	NO	0.100000
P005	0.000000	0.000000	0.000000	NO	0.100000
P009	0.000000	0.000000	0.000000	NO	0.000000
P011	0.000000	0.000000	0.000000	NO	0.000000

[CONTROLS]
; New Real Time Control (RTC) Rules
RULE RULE-1
IF SIMULATION CLOCKTIME > 00:00:00
THEN CONDUIT P005 STATUS = CLOSED
PRIORITY 0.000000


[POLLUTANTS]
TSS	MG/L	18.000000	0.000000	0.000000	0.000000	NO	*	0.000000	0.000000	0.000000
TN	MG/L	1.000000	0.000000	0.000000	0.000000	NO	*	0.000000	0.000000	0.000000

[LANDUSES]
A	0.000000	0.000000	0.000000
B	0.000000	0.000000	0.000000

[COVERAGES]
CA-1	A	45.000000
CA-1	B	55.000000
CA-11	A	45.000000
CA-11	B	55.000000
CA-7	A	45.000000
CA-7	B	55.000000
CA-8	A	45.000000
CA-8	B	55.000000

[BUILDUP]
A	TSS	NONE	0.0	0.0	0.0	AREA
A	TN	NONE	0.0	0.0	0.0	AREA
B	TSS	NONE	0.0	0.0	0.0	AREA
B	TN	NONE	0.0	0.0	0.0	AREA

[WASHOFF]
A	TSS	NONE	0.0	0.0	0.0	0.0
A	TN	NONE	0.0	0.0	0.0	0.0
B	TSS	NONE	0.0	0.0	0.0	0.0
B	TN	NONE	0.0	0.0	0.0	0.0

[TREATMENT]

[INFLOWS]
FLOWFROMSUB	FLOW	""	FLOW  1.0	1.000000	1.000000	EVAPORATION

[DWF]
FLOWFROMSUB	FLOW	10.000000	"ODDDATYPATTERN"	"ONEDAY"	""	""

[RDII]
FLOWFROMSUB	2050RTK	122.000000

[LOADINGS]

[CURVES]
; 
CUNETTE	SHAPE	0.000000	0.000000
CUNETTE	0.020000	0.140000
CUNETTE	0.040000	0.195950
CUNETTE	0.060000	0.237500
CUNETTE	0.080000	0.271300
CUNETTE	0.100000	0.300000
CUNETTE	0.120000	0.324950
CUNETTE	0.140000	0.347000
CUNETTE	0.160000	0.366600
CUNETTE	0.180000	0.384200
CUNETTE	0.200000	0.400000
CUNETTE	0.220000	0.414250
CUNETTE	0.240000	0.427100
CUNETTE	0.260000	0.438650
CUNETTE	0.280000	0.449000
CUNETTE	0.300000	0.458250
CUNETTE	0.320000	0.933000
CUNETTE	0.340000	0.947400
CUNETTE	0.360000	0.960000
CUNETTE	0.380000	0.970800
CUNETTE	0.400000	0.979800
CUNETTE	0.420000	0.987100
CUNETTE	0.440000	0.992800
CUNETTE	0.460000	0.996800
CUNETTE	0.480000	0.999200
CUNETTE	0.500000	1.000000
CUNETTE	0.520000	0.999200
CUNETTE	0.540000	0.996800
CUNETTE	0.560000	0.992800
CUNETTE	0.580000	0.987100
CUNETTE	0.600000	0.979800
CUNETTE	0.620000	0.970800
CUNETTE	0.640000	0.960000
CUNETTE	0.660000	0.947400
CUNETTE	0.680000	0.933000
CUNETTE	0.700000	0.916500
CUNETTE	0.720000	0.898000
CUNETTE	0.740000	0.877300
CUNETTE	0.760000	0.854200
CUNETTE	0.780000	0.828500
CUNETTE	0.800000	0.800000
CUNETTE	0.820000	0.768400
CUNETTE	0.840000	0.733200
CUNETTE	0.860000	0.694000
CUNETTE	0.880000	0.649900
CUNETTE	0.900000	0.600000
CUNETTE	0.920000	0.542600
CUNETTE	0.940000	0.475000
CUNETTE	0.960000	0.391900
CUNETTE	0.980000	0.280000
CUNETTE	1.000000	0.000000

[TIMESERIES]
RAINSERIES1	07/15/1977	06:30	0.000000
RAINSERIES1	06:35	21.000000
RAINSERIES1	06:40	1.000000
RAINSERIES1	06:45	0.500000
RAINSERIES1	06:50	0.000000
RAINSERIES1	07:05	0.000000
RAINSERIES1	07:10	17.000000
RAINSERIES1	07:15	22.000000
RAINSERIES1	07/15/1977	07:20	50.500000
RAINSERIES1	07:25	53.250000
RAINSERIES1	07:30	15.750000
RAINSERIES1	07:35	58.250000
RAINSERIES1	07:40	7.750000
RAINSERIES1	07/15/1977	07:45	5.000000
RAINSERIES1	07:50	0.000000
RAINSERIES1	08:00	0.000000
RAINSERIES1	08:05	0.500000
RAINSERIES1	07/15/1977	08:10	0.000000
RAINSERIES1	08:25	0.000000
RAINSERIES1	08:30	5.500000
RAINSERIES1	07/15/1977	08:35	59.750000
RAINSERIES1	08:40	10.000000
RAINSERIES1	08:45	21.500000
RAINSERIES1	08:50	69.750000
RAINSERIES1	08:55	34.500000
RAINSERIES1	07/15/1977	09:00	27.000000
RAINSERIES1	09:05	16.000000
RAINSERIES1	09:10	0.500000
RAINSERIES1	09:15	3.750000
RAINSERIES1	09:20	0.000000

TEMP1977	5/17/1977	0:0	45.000000
TEMP1977	1:0	45.000000
TEMP1977	2:0	45.000000
TEMP1977	3:0	45.000000


[PATTERNS]
; 
EVAPORATION	MONTHLY	5.000000	5.000000	2.000000	2.000000	3.000000
EVAPORATION	3.000000	2.000000	2.000000	2.000000	1.000000
EVAPORATION	1.000000	1.000000
; 
NORMALDAYS	DAILY	1.000000	1.000000	1.000000	0.000000	1.000000
NORMALDAYS	1.000000	1.000000
; 
ODDDATYPATTERN	HOURLY	0.000000	0.000000	0.000000	0.000000	0.000000
ODDDATYPATTERN	0.000000	0.000000	1.000000	1.000000	1.000000
ODDDATYPATTERN	1.000000	1.000000	0.000000	0.000000	0.000000
ODDDATYPATTERN	1.000000	1.000000	1.000000	1.000000	1.000000
ODDDATYPATTERN	0.000000	0.000000	0.000000	0.000000
; 
ONEDAY	DAILY	0.000000	0.000000	0.000000	1.000000	0.000000
ONEDAY	0.000000	0.000000

[REPORT]
;Report Option Set: BASE, Base Simulation Report
INPUT NO
CONTINUITY YES
FLOWSTATS YES
CONTROLS NO
SUBCATCHMENTS  ALL
NODES  ALL
LINKS  ALL

[COORDINATES]
FLOWFROMSUB	400.000000	400.000000
OUTLET	-8.449000	111.653000
OVERLANDNODE	418.957117	382.033678
P001	147.531000	119.924000
P005	198.227000	200.920000
P009	281.276000	352.903000


[POLYGONS]

CA-1	252.872329	423.263157
CA-1	171.191286	474.605526
CA-1	114.933602	516.085345
CA-1	40.904984	619.843855
CA-1	-111.179407	560.147178
CA-1	-57.644000	368.074000
CA-1	174.302945	287.906000

CA-11	708.718000	347.243000
CA-11	612.268918	568.733204
CA-11	497.915458	459.825147
CA-11	381.228254	347.805431
CA-11	695.636363	196.112066

CA-7	695.636363	196.112066
CA-7	382.784083	346.249602
CA-7	273.098111	410.816521
CA-7	248.982756	419.373583
CA-7	234.202377	399.147801
CA-7	174.302945	287.906000
CA-7	475.142000	106.057000

CA-8	382.784083	348.583346
CA-8	613.824748	568.733204
CA-8	383.819000	625.439000
CA-8	232.408000	633.895000
CA-8	114.677000	516.163000
CA-8	312.771761	384.367422

[VERTICES]

CDT-11	418.957117	379.699934

[SYMBOLS]
GAGE1	242.100000	568.930000

[MAP]
DIMENSIONS	-152.174277	79.665100	749.712870	660.286900

