[TITLE]
Scenario Run :  WRONG_INTERVAL
 SW 1 0 9A1 'BROWARD COUNTY Multi FAMILY SITE - Runoff example # 47'A2 'RUNO

[OPTIONS]
;Option and Files Scenario Set: BASE, Base Simulation Options
FLOW_UNITS	LPS
INFILTRATION	HORTON
FLOW_ROUTING	DYNWAVE
ALLOW_PONDING	NO
DRY_DAYS	7.000000
SKIP_STEADY_STATE 	NO
IGNORE_RAINFALL	NO
IGNORE_SNOWMELT	NO
IGNORE_GROUNDWATER	NO
IGNORE_QUALITY	NO
FORCE_MAIN_EQUATION	H-W
LINK_OFFSETS	DEPTH
MIN_SLOPE	0.000000
START_DATE	07/15/1977
START_TIME	06:30
END_DATE	07/15/1977
END_TIME	19:15
REPORT_START_DATE	07/15/1977
REPORT_START_TIME	06:30
SWEEP_START	01/01
SWEEP_END	12/31
WET_STEP	00:01:00
DRY_STEP	00:01:00
ROUTING_STEP	5
REPORT_STEP	00:01:00
INERTIAL_DAMPING	NONE
VARIABLE_STEP	0.750000
MINIMUM_STEP	0.5
LENGTHENING_STEP	0
MIN_SURFAREA	12.566000
NORMAL_FLOW_LIMITED	BOTH
MAX_TRIALS	4
HEAD_TOLERANCE	0.005000

[FILES]
SAVE RUNOFF	"C:\ProgramData\Innovyze\Temp\HM1Vdb\HMVDB55\RUNOFF47.INT"

[RAINGAGES]
GAGE1	INTENSITY	0.083333	1.000000	TIMESERIES	RAINSERIES1		

[HYDROGRAPHS]

[EVAPORATION]
CONSTANT	0.000000
DRY_ONLY	NO
RECOVERY	evaporation

[TEMPERATURE]

[ADJUSTMENTS]

[SUBCATCHMENTS]
CA-1	GAGE1	P005	5.000000	39.000000	600.000000	2.700000	0.000000
CA-11	GAGE1	P011	3.580000	47.000000	600.000000	2.700000	0.000000
CA-7	GAGE1	JCT-10	1.599000	48.600000	200.000000	2.700000	0.000000
CA-8	GAGE1	P009	4.565000	46.700000	500.000000	2.700000	0.000000

[SUBAREAS]
CA-1	0.015000	0.410000	0.060000	0.200000	25.000000	OUTLET
CA-11	0.015000	0.410000	0.060000	0.200000	25.000000	OUTLET
CA-7	0.015000	0.410000	0.060000	0.200000	25.000000	OUTLET
CA-8	0.015000	0.410000	0.060000	0.200000	25.000000	OUTLET

[INFILTRATION]
CA-1	3.000000	0.100000	0.050000	0.001000	0.000000
CA-11	3.000000	0.100000	0.050000	0.001000	0.000000
CA-7	3.000000	0.100000	0.050000	0.001000	0.000000
CA-8	3.000000	0.100000	0.050000	0.001000	0.000000

[AQUIFERS]
BROWARD	0.500000	0.150000	0.300000	5.000000	10.000000	15.000000	0.350000	14.000000	0.002000	0.000000	10.000000	0.300000

[GROUNDWATER]

[GWF]

[SNOWPACKS]

[JUNCTIONS]
; Runoff Node
JCT-10	3.600000	20.000000	0.000000	0.000000	0.000000
P001	1.100000	20.000000	0.000000	0.000000	0.000000
P005	1.580000	20.000000	0.000000	0.000000	0.000000
; Runoff Node
P009	3.600000	20.000000	0.000000	0.000000	0.000000
; Runoff Node
P011	2.890000	20.000000	0.000000	0.000000	0.000000

[OUTFALLS]
OUTLET	0.000000	FREE	NO

[DIVIDERS]

[STORAGE]

[CONDUITS]
CDT-11	JCT-10	P005	655.000000	0.024000	-0.710000	0.000000	0.000000	0.000000
CDT-13	P011	P005	655.000000	0.024000	0.000000	0.000000	0.000000	0.000000
CDT-15	P011	P005	655.000000	0.024000	0.000000	0.000000	0.000000	0.000000
P001	P001	OUTLET	220.000000	0.015000	0.000000	0.000000	0.000000	0.000000
P005	P005	P001	240.000000	0.015000	0.000000	0.000000	0.000000	0.000000
P009	P009	P005	505.000000	0.024000	0.000000	0.000000	0.000000	0.000000
P011	P011	P005	655.000000	0.024000	0.000000	0.000000	0.000000	0.000000

[PUMPS]

[ORIFICES]

[WEIRS]

[XSECTIONS]
CDT-11	CIRCULAR	2.500000	0.000000	0.000000	0.000000	1	0
CDT-13	CIRCULAR	2.500000	0.000000	0.000000	0.000000	1	0
CDT-15	CIRCULAR	2.500000	0.000000	0.000000	0.000000	1	0
P001	CIRCULAR	4.000000	0.000000	0.000000	0.000000	1	0
P005	CIRCULAR	3.000000	0.000000	0.000000	0.000000	1	0
P009	CIRCULAR	2.250000	0.000000	0.000000	0.000000	1	0
P011	CIRCULAR	2.500000	0.000000	0.000000	0.000000	1	0

[TRANSECTS]

[LOSSES]
CDT-11	0.000000	0.000000	0.000000	NO	0.000000
CDT-13	0.000000	0.000000	0.000000	NO	0.000000
CDT-15	0.000000	0.000000	0.000000	NO	0.000000
P001	0.000000	0.000000	0.000000	NO	0.000000
P005	0.000000	0.000000	0.000000	NO	0.000000
P009	0.000000	0.000000	0.000000	NO	0.000000
P011	0.000000	0.000000	0.000000	NO	0.000000

[CONTROLS]

[POLLUTANTS]
TSS	MG/L	10.000000	0.000000	0.000000	0.000000	NO	*	0.000000	0.000000	0.000000

[LANDUSES]
URBAN	0.000000	0.000000	0.000000

[COVERAGES]
CA-1	URBAN	100.000000
CA-11	URBAN	100.000000
CA-7	URBAN	100.000000
CA-8	URBAN	100.000000

[BUILDUP]
URBAN	TSS	NONE	0.0	0.0	0.0	AREA

[WASHOFF]
URBAN	TSS	EMC	0.000000	0.000000	0.000000	0.000000

[TREATMENT]

[INFLOWS]
P011	FLOW	""	FLOW  1.0	1.000000

[DWF]

[RDII]

[LOADINGS]

[CURVES]

[TIMESERIES]
RAINSERIES1	07/15/1977	06:30	0.000000
RAINSERIES1	06:35	0.840000
RAINSERIES1	06:40	0.040000
RAINSERIES1	06:45	0.020000
RAINSERIES1	06:50	0.000000
RAINSERIES1	07:05	0.000000
RAINSERIES1	07:10	0.680000
RAINSERIES1	07:15	0.880000
RAINSERIES1	07/15/1977	07:20	2.020000
RAINSERIES1	07:25	2.130000
RAINSERIES1	07:30	0.630000
RAINSERIES1	07:35	2.330000
RAINSERIES1	07:40	0.310000
RAINSERIES1	07/15/1977	07:45	0.200000
RAINSERIES1	07:50	0.000000
RAINSERIES1	08:00	0.000000
RAINSERIES1	08:05	0.020000
RAINSERIES1	07/15/1977	08:10	0.000000
RAINSERIES1	08:25	0.000000
RAINSERIES1	08:30	0.220000
RAINSERIES1	07/15/1977	08:35	2.390000
RAINSERIES1	08:40	0.400000
RAINSERIES1	08:45	0.860000
RAINSERIES1	08:50	2.790000
RAINSERIES1	08:55	1.380000
RAINSERIES1	07/15/1977	09:00	1.080000
RAINSERIES1	09:05	0.640000
RAINSERIES1	09:10	0.020000
RAINSERIES1	09:15	0.150000
RAINSERIES1	09:20	0.000000


[PATTERNS]
; 
EVAPORATION	MONTHLY	5.000000	5.000000	2.000000	2.000000	3.000000
EVAPORATION	3.000000	2.000000	2.000000	2.000000	1.000000
EVAPORATION	1.000000	1.000000
; 
HOURLY	HOURLY	1.000000	1.000000	2.000000	1.500000	2.000000
HOURLY	1.000000	2.000000	1.000000	1.500000	1.000000
HOURLY	1.500000	1.000000	2.000000	0.500000	1.500000
HOURLY	0.500000	1.000000	0.500000	1.000000	0.500000
HOURLY	1.000000	0.500000	1.000000	0.500000
; 
MONTHLY	MONTHLY	1.000000	1.000000	1.000000	1.000000	1.000000
MONTHLY	1.000000	1.000000	1.000000	1.000000	1.000000
MONTHLY	1.000000	1.000000

[REPORT]
;Report Option Set: BASE, Base Simulation Report
INPUT NO
CONTINUITY YES
FLOWSTATS YES
CONTROLS NO
SUBCATCHMENTS  ALL
NODES  ALL
LINKS  ALL

[COORDINATES]
JCT-10	349.739373	285.371109
OUTLET	-8.449000	111.653000
P001	147.531000	119.924000
P005	198.227000	200.920000
P009	281.276000	352.903000
P011	400.000000	400.000000


[POLYGONS]

CA-1	230.769000	402.206000
CA-1	162.277000	464.779000
CA-1	117.461000	514.668000
CA-1	-57.644000	368.074000
CA-1	60.088000	250.342000

CA-11	708.718000	347.243000
CA-11	590.986000	464.975000
CA-11	473.255000	347.243000
CA-11	590.986000	229.512000

CA-7	592.873000	223.788000
CA-7	475.142000	341.520000
CA-7	357.410000	223.788000
CA-7	475.142000	106.057000

CA-8	350.139000	516.163000
CA-8	366.979000	570.801000
CA-8	383.819000	625.439000
CA-8	232.408000	633.895000
CA-8	114.677000	516.163000
CA-8	232.408000	398.432000

[VERTICES]

CDT-13	329.229096	389.631682
CDT-15	369.395055	328.955447

[SYMBOLS]
GAGE1	242.100000	568.930000

[MAP]
DIMENSIONS	-95.962100	79.665100	747.036100	660.286900

