[OPTIONS]
;Option and Files Scenario Set: DESIGN_STORM, simulates design storm
FLOW_UNITS	MGD
INFILTRATION	HORTON
FLOW_ROUTING	DYNWAVE
ALLOW_PONDING	YES
DRY_DAYS	5.000000
SKIP_STEADY_STATE 	NO
IGNORE_RAINFALL	NO
IGNORE_SNOWMELT	NO
IGNORE_GROUNDWATER	NO
IGNORE_QUALITY	NO
FORCE_MAIN_EQUATION	H-W
LINK_OFFSETS	DEPTH
MIN_SLOPE	0.000000
START_DATE	07/30/2012
START_TIME	23:00
END_DATE	08/01/2012
END_TIME	23:45
REPORT_START_DATE	07/31/2012
REPORT_START_TIME	00:00
SWEEP_START	01/01
SWEEP_END	12/31
WET_STEP	00:05:00
DRY_STEP	01:00:00
ROUTING_STEP	10
REPORT_STEP	00:15:00
INERTIAL_DAMPING	NONE
VARIABLE_STEP	0.750000
MINIMUM_STEP	0.5
LENGTHENING_STEP	0
MIN_SURFAREA	0.000000
NORMAL_FLOW_LIMITED	SLOPE
MAX_TRIALS	4
HEAD_TOLERANCE	0.005000

[FILES]

[RAINGAGES]
; rain gauge for 48th and Burt project area
RG-48&BURT	VOLUME	0.250000	1.000000	TIMESERIES	100YR24HR		

[HYDROGRAPHS]

[TEMPERATURE]

[ADJUSTMENTS]

[SUBCATCHMENTS]
; total drainage area = 3.00 ac; B soils
S280	RG-48&BURT	0116025	1.050000	0.000000	500.000000	6.700000	0.000000
; total drainage area = 6.83 ac; B soils
S283	RG-48&BURT	0116148	5.810000	0.000000	500.000000	5.500000	0.000000
; SUB283 split; A=0.47ac; Bsoil; tc calc<6m, manually set=6m
S283A	RG-48&BURT	0116040	0.400000	0.000000	500.000000	8.800000	0.000000
; total drainage area = 3.99 ac; B soils
S58	RG-48&BURT	0116001	3.390000	0.000000	500.000000	6.200000	0.000000
; total drainage area = 2.81 ac; B soils
S62	RG-48&BURT	0116002	0.980000	0.000000	500.000000	6.600000	0.000000
; split off of S62&S58; total drainage area = 1.35 ac; B soils
S62A	RG-48&BURT	0116003	1.150000	0.000000	500.000000	6.100000	0.000000
; split off of subcatchment S62; total drainage area = 2.68 ac
S62B	RG-48&BURT	0117078G	0.940000	0.000000	500.000000	2.800000	0.000000
; SUB62 split; A=0.99ac; Bsoil; tc calc<6m, manually set=6m
S62C	RG-48&BURT	0116015	0.350000	0.000000	500.000000	8.700000	0.000000
; total drainage area = 6.57 ac; C soils
S65	RG-48&BURT	0141032	5.580000	0.000000	500.000000	3.900000	0.000000
; split off subcatchment S65; total drainage area = 4.52 ac; C
S65A	RG-48&BURT	0142044	3.840000	0.000000	500.000000	5.500000	0.000000
; split off subcatchment S65; total drainage area = 5.28 ac; B
S65B	RG-48&BURT	0141031	4.490000	0.000000	500.000000	5.800000	0.000000
; split off subcatchment S65; total drainage area = 3.59 ac; B
S65C	RG-48&BURT	0141034	3.050000	0.000000	500.000000	4.600000	0.000000
; A=1.69ac; Bsoil; tc calc<6m, so manually set to 6m
S66	RG-48&BURT	0116025	0.590000	0.000000	500.000000	14.200000	0.000000
; A=3.13ac; Bsoil; tc calc<6m, so manually set to 6m
S68	RG-48&BURT	0116014	2.660000	0.000000	500.000000	7.100000	0.000000
; split off subcatchment S68; total drainage area = 1.44 ac; B
S68A	RG-48&BURT	0116024	1.220000	0.000000	500.000000	5.400000	0.000000
; split off subcatchment S68; total drainage area = 3.87 ac; B
S68B	RG-48&BURT	0116021	3.290000	0.000000	500.000000	6.400000	0.000000
; split off subcatchment S68; total drainage area = 0.57 ac; B
S68C	RG-48&BURT	0141072	0.480000	0.000000	500.000000	5.500000	0.000000
; total drainage area = 8.06 ac; B soils
S71	RG-48&BURT	0141019	6.850000	0.000000	500.000000	4.700000	0.000000
; split off subcatchment S71; total drainage area = 6.27 ac; C
S71A	RG-48&BURT	0141008	5.330000	0.000000	500.000000	3.400000	0.000000

[SUBAREAS]
S280	0.100000	0.001000	0.050000	0.050000	25.000000	OUTLET
S283	0.100000	0.001000	0.050000	0.050000	25.000000	OUTLET
S283A	0.100000	0.001000	0.050000	0.050000	25.000000	OUTLET
S58	0.100000	0.001000	0.050000	0.050000	25.000000	OUTLET
S62	0.100000	0.001000	0.050000	0.050000	25.000000	OUTLET
S62A	0.100000	0.001000	0.050000	0.050000	25.000000	OUTLET
S62B	0.100000	0.001000	0.050000	0.050000	25.000000	OUTLET
S62C	0.100000	0.001000	0.050000	0.050000	25.000000	OUTLET
S65	0.100000	0.001000	0.050000	0.050000	25.000000	OUTLET
S65A	0.100000	0.001000	0.050000	0.050000	25.000000	OUTLET
S65B	0.100000	0.001000	0.050000	0.050000	25.000000	OUTLET
S65C	0.100000	0.001000	0.050000	0.050000	25.000000	OUTLET
S66	0.100000	0.001000	0.050000	0.050000	25.000000	OUTLET
S68	0.100000	0.001000	0.050000	0.050000	25.000000	OUTLET
S68A	0.100000	0.001000	0.050000	0.050000	25.000000	OUTLET
S68B	0.100000	0.001000	0.050000	0.050000	25.000000	OUTLET
S68C	0.100000	0.001000	0.050000	0.050000	25.000000	OUTLET
S71	0.100000	0.001000	0.050000	0.050000	25.000000	OUTLET
S71A	0.100000	0.001000	0.050000	0.050000	25.000000	OUTLET

[INFILTRATION]

[AQUIFERS]

[GROUNDWATER]

[GWF]

[SNOWPACKS]

[JUNCTIONS]
; Manhole
0116001	1142.100000	10.710000	0.000000	0.000000	0.000000
; Manhole
0116002	1117.760000	12.700000	0.000000	0.000000	0.000000
; Manhole
0116003	1114.260000	13.480000	0.000000	0.000000	0.000000
; T Intersection; invert interpolated
0116012G	1183.160000	15.300000	0.000000	0.000000	0.000000
; Manhole
0116013	1151.590000	8.860000	0.000000	0.000000	0.000000
; Manhole
0116014	1139.130000	8.500000	0.000000	0.000000	0.000000
; Manhole
0116015	1122.320000	10.010000	0.000000	0.000000	0.000000
; Manhole
0116020	1149.610000	5.850000	0.000000	0.000000	200.000000
; Manhole
0116021	1150.840000	5.660000	0.000000	0.000000	0.000000
; Manhole
0116022	1144.730000	7.910000	0.000000	0.000000	0.000000
; Manhole
0116023	1125.670000	11.820000	0.000000	0.000000	0.000000
; Manhole
0116024	1166.290000	9.530000	0.000000	0.000000	0.000000
; Manhole
0116025	1140.190000	10.920000	0.000000	0.000000	0.000000
; Manhole
0116037	1190.410000	8.410000	0.000000	0.000000	0.000000
; Manhole
0116038	1195.430000	9.420000	0.000000	0.000000	0.000000
; Manhole
0116039	1155.120000	10.410000	0.000000	0.000000	0.000000
; Manhole
0116040	1157.070000	11.800000	0.000000	0.000000	0.000000
; Manhole
0116041	1149.120000	9.240000	0.000000	0.000000	0.000000
; Manhole
0116042	1102.600000	11.010000	0.000000	0.000000	0.000000
; Manhole
0116054	1194.400000	9.690000	0.000000	0.000000	0.000000
; Manhole
0116055	1185.100000	16.540000	0.000000	0.000000	0.000000
; Clean Out; assumed invert elevation no record drawing
0116073C	1196.000000	10.000000	0.000000	0.000000	0.000000
; Manhole
0116084	1132.150000	9.390000	0.000000	0.000000	0.000000
; Manhole
0116088	1156.030000	3.120000	0.000000	0.000000	0.000000
; Manhole
0116105	1101.610000	8.000000	0.000000	0.000000	0.000000
; Inlet/Catch Basin
0116111B	1107.600000	7.500000	0.000000	0.000000	0.000000
; Inlet/Catch Basin
0116146B	1136.500000	7.950000	0.000000	0.000000	0.000000
; Manhole
0116148	1143.480000	12.000000	0.000000	0.000000	0.000000
; Tap; invert interpolated
0117078G	1106.240000	15.760000	0.000000	0.000000	0.000000
; Manhole
0141008	1188.040000	11.740000	0.000000	0.000000	0.000000
; Manhole
0141009	1204.650000	7.540000	0.000000	0.000000	0.000000
; Manhole
0141019	1167.680000	10.480000	0.000000	0.000000	0.000000
; Manhole; assumed invert, no record drawing
0141020	1206.300000	7.370000	0.000000	0.000000	0.000000
; Manhole
0141031	1160.430000	6.290000	0.000000	0.000000	625.000000
; Manhole
0141032	1182.460000	9.910000	0.000000	0.000000	0.000000
; Manhole
0141033	1206.460000	9.620000	0.000000	0.000000	0.000000
; Manhole
0141034	1213.000000	6.000000	0.000000	0.000000	0.000000
; Manhole
0141066	1202.000000	13.000000	0.000000	0.000000	0.000000
; Manhole
0141067	1177.040000	11.440000	0.000000	0.000000	0.000000
; Manhole
0141068	1226.960000	8.390000	0.000000	0.000000	0.000000
; Manhole
0141072	1160.790000	6.810000	0.000000	0.000000	0.000000
; Manhole
0142030	1218.830000	9.170000	0.000000	0.000000	0.000000
; Manhole
0142031	1195.780000	8.800000	0.000000	0.000000	0.000000
; Manhole
0142042	1206.580000	8.630000	0.000000	0.000000	0.000000
; Manhole
0142043	1179.480000	9.840000	0.000000	0.000000	0.000000
; Manhole
0142044	1164.260000	11.510000	0.000000	0.000000	0.000000
; Manhole
0142045	1192.310000	11.140000	0.000000	0.000000	0.000000
; Manhole
0142046	1155.920000	13.060000	0.000000	0.000000	0.000000
; Manhole; assumed invert
0142047	1214.000000	5.000000	0.000000	0.000000	0.000000
; Manhole
0142053	1207.950000	11.050000	0.000000	0.000000	0.000000
; Manhole
0142054	1190.430000	9.150000	0.000000	0.000000	0.000000

[OUTFALLS]
; manhole at Saddle Creek Int.; ground elevation = 1124.66'
0116005	1102.880000	FREE	NO
; tap at Saddle Creek Int.; ground elevation = 1111.54'
0116106G	1093.450000	FREE	NO
; junction box at Saddle Creek Int.; ground elev. = 1121.38'
0116159	1100.030000	FREE	NO
; tap at Saddle Creek Int.; ground elevation = 1111.54'
0116164G	1093.290000	FREE	NO
; dummy outfall for overflow; assumes no d/s restrictions
0141022	1212.000000	NORMAL	NO

[DIVIDERS]

[STORAGE]

[CONDUITS]
; Sewer
0116001	0116001	0116002	373.800000	0.013000	0.000000	0.160000	0.000000	0.000000
; Sewer
0116002	0116002	0116003	163.600000	0.013000	0.000000	0.120000	0.000000	0.000000
; Sewer
0116003	0116003	0116005	112.600000	0.013000	0.000000	9.540000	0.000000	0.000000
; Collector; downstream invert interpolated
0116012G	0116012G	0116040	269.200000	0.013000	0.000000	0.340000	0.000000	0.000000
; Sewer
0116013	0116013	0116014	162.400000	0.013000	0.000000	0.040000	0.000000	0.000000
; Sewer
0116014	0116014	0116015	378.200000	0.013000	0.000000	0.350000	0.000000	0.000000
; Sewer
0116015	0116015	0117078G	298.400000	0.013000	0.000000	0.000000	0.000000	0.000000
0116015A	0117078G	0116159	90.500000	0.013000	0.000000	1.330000	0.000000	0.000000
; inverted pipe slope based on survey
0116020	0116020	0116013	144.400000	0.013000	0.010000	0.110000	0.000000	0.000000
; Sewer
0116021	0116021	0116020	78.200000	0.013000	0.000000	0.000000	0.000000	0.000000
; Sewer
0116022	0116022	0116014	192.900000	0.013000	0.000000	0.340000	0.000000	0.000000
; Sewer
0116023	0116023	0116015	183.100000	0.013000	0.000000	1.070000	0.000000	0.000000
; Sewer
0116024	0116024	0116022	218.100000	0.013000	0.000000	0.000000	0.000000	0.000000
; Sewer
0116025	0116025	0116023	210.800000	0.013000	0.000000	0.020000	0.000000	0.000000
; Collector
0116037	0116037	0116024	261.500000	0.013000	0.000000	0.070000	0.000000	0.000000
; Collector
0116038	0116038	0116037	229.100000	0.013000	0.000000	0.090000	0.000000	0.000000
; Sewer
0116039	0116039	0116025	395.600000	0.013000	0.000000	0.020000	0.000000	0.000000
; Sewer
0116040	0116040	0116039	189.000000	0.013000	0.000000	0.020000	0.000000	0.000000
; Sewer; upstream invert interpolated
0116040Z	0116040	0116041	108.600000	0.013000	0.750000	0.250000	0.000000	0.000000
; Sewer
0116041	0116041	0116084	138.700000	0.013000	0.000000	3.180000	0.000000	0.000000
; Sewer
0116042	0116042	0116164G	140.700000	0.013000	0.000000	8.320000	0.000000	0.000000
; Collector
0116054	0116054	0116055	349.300000	0.013000	0.000000	0.240000	0.000000	0.000000
; Collector
0116055	0116055	0116012G	43.900000	0.013000	0.000000	0.000000	0.000000	0.000000
; Collector; assumed inverts, no record drawing
0116073C	0116073C	0116012G	122.500000	0.013000	0.000000	0.000000	0.000000	0.000000
; Sewer
0116084	0116084	0116042	257.000000	0.013000	0.000000	0.150000	0.000000	0.000000
; Collector
0116088	0116088	0116021	62.800000	0.013000	0.000000	2.560000	0.000000	0.000000
; Sewer
0116105	0116105	0116106G	40.500000	0.013000	0.000000	6.390000	0.000000	0.000000
; Sewer
0116111B	0116111B	0116105	122.900000	0.013000	0.000000	0.000000	0.000000	0.000000
; Sewer
0116146B	0116146B	0116111B	265.400000	0.013000	0.000000	2.550000	0.000000	0.000000
; Sewer
0116148	0116148	0116146B	104.600000	0.013000	0.000000	0.000000	0.000000	0.000000
; Sewer
0141008	0141008	0141067	197.700000	0.013000	0.000000	0.000000	0.000000	0.000000
; Collector
0141009	0141009	0141008	238.000000	0.013000	0.000000	0.000000	0.000000	0.000000
; Sewer
0141019	0141019	0141072	271.300000	0.013000	0.000000	0.000000	0.000000	0.000000
; Collector; assumed slope, no record drawing
0141020	0141020	0141019	433.600000	0.013000	0.000000	0.170000	0.000000	0.000000
; Sewer
0141031	0141031	0142046	249.700000	0.013000	0.000000	0.100000	0.000000	0.000000
; Sewer
0141032	0141032	0141031	322.500000	0.013000	0.000000	0.090000	0.000000	0.000000
; Sewer
0141033	0141033	0141032	244.600000	0.013000	0.000000	0.200000	0.000000	0.000000
; Sewer
0141034	0141034	0141033	44.800000	0.013000	0.000000	0.730000	0.000000	0.000000
; assumed downstream invert
0141034Z	0141034	0141022	313.100000	0.013000	0.500000	0.000000	0.000000	0.000000
; Collector
0141066	0141066	0141067	393.300000	0.013000	0.000000	0.160000	0.000000	0.000000
; Sewer
0141067	0141067	0141019	178.700000	0.013000	0.000000	0.140000	0.000000	0.000000
; Collector
0141068	0141068	0141034	311.600000	0.013000	0.000000	0.000000	0.000000	0.000000
; Sewer
0141072	0141072	0141031	26.600000	0.013000	0.000000	0.000000	0.000000	0.000000
; Collector
0142030	0142030	0142042	319.800000	0.013000	0.000000	0.930000	0.000000	0.000000
; Collector
0142031	0142031	0142043	320.300000	0.013000	0.000000	0.840000	0.000000	0.000000
; Sewer
0142042	0142042	0142043	291.900000	0.013000	0.000000	0.020000	0.000000	0.000000
; Sewer
0142043	0142043	0142044	156.900000	0.013000	0.000000	0.450000	0.000000	0.000000
; Sewer
0142044	0142044	0116001	334.500000	0.013000	0.000000	0.130000	0.000000	0.000000
; Collector
0142045	0142045	0142054	104.100000	0.013000	0.000000	0.000000	0.000000	0.000000
; Sewer
0142046	0142046	0116013	140.400000	0.013000	0.000000	0.060000	0.000000	0.000000
; Collector; assumed upstream invert
0142047	0142047	0141034	220.700000	0.013000	0.000000	0.000000	0.000000	0.000000
; Collector
0142053	0142053	0142054	230.200000	0.013000	0.000000	0.070000	0.000000	0.000000
; Collector
0142054	0142054	0141032	231.100000	0.013000	0.000000	0.070000	0.000000	0.000000

[PUMPS]

[ORIFICES]

[WEIRS]

[XSECTIONS]
0116001	CIRCULAR	2.000000	0.000000	0.000000	0.000000	1	0
0116002	CIRCULAR	2.500000	0.000000	0.000000	0.000000	1	0
0116003	CIRCULAR	2.500000	0.000000	0.000000	0.000000	1	0
0116012G	CIRCULAR	0.666667	0.000000	0.000000	0.000000	1	0
0116013	CIRCULAR	4.000000	0.000000	0.000000	0.000000	1	0
0116014	CIRCULAR	4.000000	0.000000	0.000000	0.000000	1	0
0116015	CIRCULAR	4.000000	0.000000	0.000000	0.000000	1	0
0116015A	CIRCULAR	4.000000	0.000000	0.000000	0.000000	1	0
0116020	CIRCULAR	2.000000	0.000000	0.000000	0.000000	1	0
0116021	CIRCULAR	2.000000	0.000000	0.000000	0.000000	1	0
0116022	CIRCULAR	1.000000	0.000000	0.000000	0.000000	1	0
0116023	CIRCULAR	1.500000	0.000000	0.000000	0.000000	1	0
0116024	CIRCULAR	0.833333	0.000000	0.000000	0.000000	1	0
0116025	CIRCULAR	1.000000	0.000000	0.000000	0.000000	1	0
0116037	CIRCULAR	0.666667	0.000000	0.000000	0.000000	1	0
0116038	CIRCULAR	0.666667	0.000000	0.000000	0.000000	1	0
0116039	CIRCULAR	1.000000	0.000000	0.000000	0.000000	1	0
0116040	CIRCULAR	1.000000	0.000000	0.000000	0.000000	1	0
0116040Z	CIRCULAR	0.666667	0.000000	0.000000	0.000000	1	0
0116041	CIRCULAR	0.833333	0.000000	0.000000	0.000000	1	0
0116042	CIRCULAR	0.833333	0.000000	0.000000	0.000000	1	0
0116054	CIRCULAR	0.666667	0.000000	0.000000	0.000000	1	0
0116055	CIRCULAR	0.666667	0.000000	0.000000	0.000000	1	0
0116073C	CIRCULAR	0.500000	0.000000	0.000000	0.000000	1	0
0116084	CIRCULAR	0.833333	0.000000	0.000000	0.000000	1	0
0116088	CIRCULAR	0.500000	0.000000	0.000000	0.000000	1	0
0116105	CIRCULAR	2.500000	0.000000	0.000000	0.000000	1	0
0116111B	CIRCULAR	2.000000	0.000000	0.000000	0.000000	1	0
0116146B	CIRCULAR	1.500000	0.000000	0.000000	0.000000	1	0
0116148	CIRCULAR	1.500000	0.000000	0.000000	0.000000	1	0
0141008	CIRCULAR	2.000000	0.000000	0.000000	0.000000	1	0
0141009	CIRCULAR	0.666667	0.000000	0.000000	0.000000	1	0
0141019	CIRCULAR	2.500000	0.000000	0.000000	0.000000	1	0
0141020	CIRCULAR	0.666667	0.000000	0.000000	0.000000	1	0
0141031	CIRCULAR	4.000000	0.000000	0.000000	0.000000	1	0
0141032	CIRCULAR	2.000000	0.000000	0.000000	0.000000	1	0
0141033	CIRCULAR	1.250000	0.000000	0.000000	0.000000	1	0
0141034	CIRCULAR	1.250000	0.000000	0.000000	0.000000	1	0
0141034Z	CIRCULAR	1.000000	0.000000	0.000000	0.000000	1	0
0141066	CIRCULAR	0.666667	0.000000	0.000000	0.000000	1	0
0141067	CIRCULAR	2.000000	0.000000	0.000000	0.000000	1	0
0141068	CIRCULAR	0.666667	0.000000	0.000000	0.000000	1	0
0141072	CIRCULAR	3.000000	0.000000	0.000000	0.000000	1	0
0142030	CIRCULAR	0.666667	0.000000	0.000000	0.000000	1	0
0142031	CIRCULAR	0.666667	0.000000	0.000000	0.000000	1	0
0142042	CIRCULAR	0.833333	0.000000	0.000000	0.000000	1	0
0142043	CIRCULAR	1.000000	0.000000	0.000000	0.000000	1	0
0142044	CIRCULAR	2.000000	0.000000	0.000000	0.000000	1	0
0142045	CIRCULAR	0.666667	0.000000	0.000000	0.000000	1	0
0142046	CIRCULAR	4.000000	0.000000	0.000000	0.000000	1	0
0142047	CIRCULAR	0.666667	0.000000	0.000000	0.000000	1	0
0142053	CIRCULAR	0.666667	0.000000	0.000000	0.000000	1	0
0142054	CIRCULAR	0.666667	0.000000	0.000000	0.000000	1	0

[TRANSECTS]

[LOSSES]
0116001	0.000000	0.300000	0.000000	NO	0.000000
0116002	0.000000	0.300000	0.000000	NO	0.000000
0116003	0.000000	1.800000	0.000000	NO	0.000000
0116012G	0.000000	0.600000	0.000000	NO	0.000000
0116013	0.000000	1.200000	0.000000	NO	0.000000
0116014	0.000000	0.600000	0.200000	NO	0.000000
0116015	0.000000	0.300000	0.000000	NO	0.000000
0116015A	0.000000	1.800000	0.000000	NO	0.000000
0116020	0.000000	1.800000	0.000000	NO	0.000000
0116021	0.000000	0.300000	0.000000	NO	0.000000
0116022	0.000000	1.800000	0.000000	NO	0.000000
0116023	0.000000	1.800000	0.000000	NO	0.000000
0116024	0.000000	0.300000	0.000000	NO	0.000000
0116025	0.000000	0.300000	0.000000	NO	0.000000
0116037	0.000000	0.300000	0.000000	NO	0.000000
0116038	0.000000	0.300000	0.000000	NO	0.000000
0116039	0.000000	0.300000	0.000000	NO	0.000000
0116040	0.000000	0.300000	0.000000	NO	0.000000
0116040Z	0.000000	0.300000	0.000000	NO	0.000000
0116041	0.000000	0.300000	0.000000	NO	0.000000
0116042	0.000000	1.800000	0.000000	NO	0.000000
0116054	0.000000	0.300000	0.000000	NO	0.000000
0116055	0.000000	1.200000	0.000000	NO	0.000000
0116073C	0.000000	1.800000	0.000000	NO	0.000000
0116084	0.000000	0.300000	0.000000	NO	0.000000
0116088	0.000000	0.300000	0.000000	NO	0.000000
0116105	0.000000	1.800000	0.000000	NO	0.000000
0116111B	0.000000	0.500000	0.000000	NO	0.000000
0116146B	0.000000	0.300000	0.000000	NO	0.000000
0116148	0.000000	0.300000	0.000000	NO	0.000000
0141008	0.000000	1.500000	0.000000	NO	0.000000
0141009	0.000000	0.600000	0.000000	NO	0.000000
0141019	0.000000	0.300000	0.000000	NO	0.000000
0141020	0.000000	1.800000	0.000000	NO	0.000000
0141031	0.000000	0.600000	0.200000	NO	0.000000
0141032	0.000000	1.800000	0.000000	NO	0.000000
0141033	0.000000	1.200000	0.000000	NO	0.000000
0141034	0.000000	0.300000	0.000000	NO	0.000000
0141034Z	0.000000	1.200000	0.000000	NO	0.000000
0141066	0.000000	1.800000	0.000000	NO	0.000000
0141067	0.000000	1.200000	0.000000	NO	0.000000
0141068	0.000000	1.200000	0.000000	NO	0.000000
0141072	0.000000	1.500000	0.000000	NO	0.000000
0142030	0.000000	0.600000	0.000000	NO	0.000000
0142031	0.000000	1.800000	0.000000	NO	0.000000
0142042	0.000000	1.200000	0.000000	NO	0.000000
0142043	0.000000	0.500000	0.200000	NO	0.000000
0142044	0.000000	0.300000	0.000000	NO	0.000000
0142045	0.000000	1.200000	0.000000	NO	0.000000
0142046	0.000000	1.200000	0.000000	NO	0.000000
0142047	0.000000	1.800000	0.000000	NO	0.000000
0142053	0.000000	1.800000	0.000000	NO	0.000000
0142054	0.000000	1.800000	0.000000	NO	0.000000

[CONTROLS]

[POLLUTANTS]

[LANDUSES]

[COVERAGES]

[BUILDUP]

[WASHOFF]

[TREATMENT]

[INFLOWS]

[DWF]

[RDII]

[LOADINGS]

[CURVES]

[TIMESERIES]
; 2-year, 24-hour SCS Type II design storm (3.00")
002YR24HR	0.250000	0.007900
002YR24HR	0.500000	0.008100
002YR24HR	0.750000	0.008100
002YR24HR	1.000000	0.008300
002YR24HR	1.250000	0.008500
002YR24HR	1.500000	0.008600
002YR24HR	1.750000	0.008800
002YR24HR	2.000000	0.008900
002YR24HR	2.250000	0.009100
002YR24HR	2.500000	0.009300
002YR24HR	2.750000	0.009400
002YR24HR	3.000000	0.009700
002YR24HR	3.250000	0.009800
002YR24HR	3.500000	0.010100
002YR24HR	3.750000	0.010300
002YR24HR	4.000000	0.010500
002YR24HR	4.250000	0.010800
002YR24HR	4.500000	0.011100
002YR24HR	4.750000	0.011300
002YR24HR	5.000000	0.011700
002YR24HR	5.250000	0.011900
002YR24HR	5.500000	0.012300
002YR24HR	5.750000	0.012700
002YR24HR	6.000000	0.013000
002YR24HR	6.250000	0.013500
002YR24HR	6.500000	0.013900
002YR24HR	6.750000	0.014400
002YR24HR	7.000000	0.015000
002YR24HR	7.250000	0.015500
002YR24HR	7.500000	0.016100
002YR24HR	7.750000	0.016900
002YR24HR	8.000000	0.017600
002YR24HR	8.250000	0.018500
002YR24HR	8.500000	0.019400
002YR24HR	8.750000	0.020500
002YR24HR	9.000000	0.021800
002YR24HR	9.250000	0.023200
002YR24HR	9.500000	0.024900
002YR24HR	9.750000	0.026800
002YR24HR	10.000000	0.029300
002YR24HR	10.250000	0.032300
002YR24HR	10.500000	0.036000
002YR24HR	10.750000	0.041100
002YR24HR	11.000000	0.048100
002YR24HR	11.250000	0.058700
002YR24HR	11.500000	0.077400
002YR24HR	11.750000	0.120300
002YR24HR	12.000000	0.538600
002YR24HR	12.250000	0.538600
002YR24HR	12.500000	0.120300
002YR24HR	12.750000	0.077400
002YR24HR	13.000000	0.058700
002YR24HR	13.250000	0.048100
002YR24HR	13.500000	0.041100
002YR24HR	13.750000	0.036000
002YR24HR	14.000000	0.032300
002YR24HR	14.250000	0.029300
002YR24HR	14.500000	0.026800
002YR24HR	14.750000	0.024900
002YR24HR	15.000000	0.023200
002YR24HR	15.250000	0.021800
002YR24HR	15.500000	0.020500
002YR24HR	15.750000	0.019400
002YR24HR	16.000000	0.018500
002YR24HR	16.250000	0.017600
002YR24HR	16.500000	0.016900
002YR24HR	16.750000	0.016100
002YR24HR	17.000000	0.015500
002YR24HR	17.250000	0.015000
002YR24HR	17.500000	0.014400
002YR24HR	17.750000	0.013900
002YR24HR	18.000000	0.013500
002YR24HR	18.250000	0.013000
002YR24HR	18.500000	0.012700
002YR24HR	18.750000	0.012300
002YR24HR	19.000000	0.011900
002YR24HR	19.250000	0.011700
002YR24HR	19.500000	0.011300
002YR24HR	19.750000	0.011100
002YR24HR	20.000000	0.010800
002YR24HR	20.250000	0.010500
002YR24HR	20.500000	0.010300
002YR24HR	20.750000	0.010100
002YR24HR	21.000000	0.009800
002YR24HR	21.250000	0.009700
002YR24HR	21.500000	0.009400
002YR24HR	21.750000	0.009300
002YR24HR	22.000000	0.009100
002YR24HR	22.250000	0.008900
002YR24HR	22.500000	0.008800
002YR24HR	22.750000	0.008600
002YR24HR	23.000000	0.008500
002YR24HR	23.250000	0.008300
002YR24HR	23.500000	0.008100
002YR24HR	23.750000	0.008100
002YR24HR	24.000000	0.007900

; 10-year, 24-hour SCS Type II design storm (4.60")
010YR24HR	0.250000	0.012100
010YR24HR	0.500000	0.012400
010YR24HR	0.750000	0.012500
010YR24HR	1.000000	0.012700
010YR24HR	1.250000	0.013000
010YR24HR	1.500000	0.013200
010YR24HR	1.750000	0.013400
010YR24HR	2.000000	0.013700
010YR24HR	2.250000	0.014000
010YR24HR	2.500000	0.014200
010YR24HR	2.750000	0.014500
010YR24HR	3.000000	0.014800
010YR24HR	3.250000	0.015100
010YR24HR	3.500000	0.015500
010YR24HR	3.750000	0.015800
010YR24HR	4.000000	0.016100
010YR24HR	4.250000	0.016600
010YR24HR	4.500000	0.016900
010YR24HR	4.750000	0.017400
010YR24HR	5.000000	0.017800
010YR24HR	5.250000	0.018400
010YR24HR	5.500000	0.018800
010YR24HR	5.750000	0.019400
010YR24HR	6.000000	0.020000
010YR24HR	6.250000	0.020700
010YR24HR	6.500000	0.021300
010YR24HR	6.750000	0.022100
010YR24HR	7.000000	0.022900
010YR24HR	7.250000	0.023800
010YR24HR	7.500000	0.024800
010YR24HR	7.750000	0.025800
010YR24HR	8.000000	0.027000
010YR24HR	8.250000	0.028400
010YR24HR	8.500000	0.029800
010YR24HR	8.750000	0.031400
010YR24HR	9.000000	0.033400
010YR24HR	9.250000	0.035600
010YR24HR	9.500000	0.038100
010YR24HR	9.750000	0.041200
010YR24HR	10.000000	0.044900
010YR24HR	10.250000	0.049500
010YR24HR	10.500000	0.055200
010YR24HR	10.750000	0.063000
010YR24HR	11.000000	0.073700
010YR24HR	11.250000	0.090200
010YR24HR	11.500000	0.118600
010YR24HR	11.750000	0.184500
010YR24HR	12.000000	0.825800
010YR24HR	12.250000	0.825800
010YR24HR	12.500000	0.184500
010YR24HR	12.750000	0.118600
010YR24HR	13.000000	0.090200
010YR24HR	13.250000	0.073700
010YR24HR	13.500000	0.063000
010YR24HR	13.750000	0.055200
010YR24HR	14.000000	0.049500
010YR24HR	14.250000	0.044900
010YR24HR	14.500000	0.041200
010YR24HR	14.750000	0.038100
010YR24HR	15.000000	0.035600
010YR24HR	15.250000	0.033400
010YR24HR	15.500000	0.031400
010YR24HR	15.750000	0.029800
010YR24HR	16.000000	0.028400
010YR24HR	16.250000	0.027000
010YR24HR	16.500000	0.025800
010YR24HR	16.750000	0.024800
010YR24HR	17.000000	0.023800
010YR24HR	17.250000	0.022900
010YR24HR	17.500000	0.022100
010YR24HR	17.750000	0.021300
010YR24HR	18.000000	0.020700
010YR24HR	18.250000	0.020000
010YR24HR	18.500000	0.019400
010YR24HR	18.750000	0.018800
010YR24HR	19.000000	0.018400
010YR24HR	19.250000	0.017800
010YR24HR	19.500000	0.017400
010YR24HR	19.750000	0.016900
010YR24HR	20.000000	0.016600
010YR24HR	20.250000	0.016100
010YR24HR	20.500000	0.015800
010YR24HR	20.750000	0.015500
010YR24HR	21.000000	0.015100
010YR24HR	21.250000	0.014800
010YR24HR	21.500000	0.014500
010YR24HR	21.750000	0.014200
010YR24HR	22.000000	0.014000
010YR24HR	22.250000	0.013700
010YR24HR	22.500000	0.013400
010YR24HR	22.750000	0.013200
010YR24HR	23.000000	0.013000
010YR24HR	23.250000	0.012700
010YR24HR	23.500000	0.012500
010YR24HR	23.750000	0.012400
010YR24HR	24.000000	0.012100

; rainfall during 2010 flow monitoring period
RAINFALL_2010	4/29/2010	0:15	0.000000
RAINFALL_2010	4/29/2010	20:30	0.000000
RAINFALL_2010	4/29/2010	20:45	0.010000
RAINFALL_2010	4/29/2010	21:00	0.040000
RAINFALL_2010	4/29/2010	21:15	0.030000
RAINFALL_2010	4/29/2010	21:30	0.030000
RAINFALL_2010	4/29/2010	21:45	0.030000
RAINFALL_2010	4/29/2010	22:00	0.030000
RAINFALL_2010	4/29/2010	22:15	0.010000
RAINFALL_2010	4/29/2010	22:30	0.020000
RAINFALL_2010	4/29/2010	22:45	0.380000
RAINFALL_2010	4/29/2010	23:00	0.180000
RAINFALL_2010	4/29/2010	23:15	0.020000
RAINFALL_2010	4/29/2010	23:30	0.020000
RAINFALL_2010	4/29/2010	23:45	0.020000
RAINFALL_2010	4/30/2010	0:00	0.000000
RAINFALL_2010	4/30/2010	0:15	0.010000
RAINFALL_2010	4/30/2010	0:30	0.010000
RAINFALL_2010	4/30/2010	0:45	0.010000
RAINFALL_2010	4/30/2010	1:00	0.010000
RAINFALL_2010	4/30/2010	1:15	0.020000
RAINFALL_2010	4/30/2010	1:30	0.010000
RAINFALL_2010	4/30/2010	1:45	0.010000
RAINFALL_2010	4/30/2010	2:00	0.000000
RAINFALL_2010	4/30/2010	8:00	0.000000
RAINFALL_2010	4/30/2010	8:15	0.010000
RAINFALL_2010	4/30/2010	8:30	0.000000
RAINFALL_2010	5/2/2010	15:00	0.000000
RAINFALL_2010	5/2/2010	15:15	0.010000
RAINFALL_2010	5/2/2010	15:30	0.000000
RAINFALL_2010	5/2/2010	20:15	0.000000
RAINFALL_2010	5/2/2010	20:30	0.010000
RAINFALL_2010	5/2/2010	20:45	0.010000
RAINFALL_2010	5/2/2010	21:00	0.000000
RAINFALL_2010	5/3/2010	16:30	0.000000
RAINFALL_2010	5/3/2010	16:45	0.010000
RAINFALL_2010	5/3/2010	17:00	0.070000
RAINFALL_2010	5/3/2010	17:15	0.030000
RAINFALL_2010	5/3/2010	17:30	0.000000
RAINFALL_2010	5/4/2010	21:30	0.000000
RAINFALL_2010	5/4/2010	21:45	0.020000
RAINFALL_2010	5/4/2010	22:00	0.000000
RAINFALL_2010	5/4/2010	22:45	0.000000
RAINFALL_2010	5/4/2010	23:00	0.010000
RAINFALL_2010	5/4/2010	23:15	0.010000
RAINFALL_2010	5/4/2010	23:30	0.000000
RAINFALL_2010	5/4/2010	23:45	0.010000
RAINFALL_2010	5/5/2010	0:00	0.000000
RAINFALL_2010	5/5/2010	0:45	0.000000
RAINFALL_2010	5/5/2010	1:00	0.010000
RAINFALL_2010	5/5/2010	1:15	0.000000
RAINFALL_2010	5/7/2010	0:15	0.000000
RAINFALL_2010	5/7/2010	0:30	0.020000
RAINFALL_2010	5/7/2010	0:45	0.050000
RAINFALL_2010	5/7/2010	1:00	0.100000
RAINFALL_2010	5/7/2010	1:15	0.020000
RAINFALL_2010	5/7/2010	1:30	0.020000
RAINFALL_2010	5/7/2010	1:45	0.020000
RAINFALL_2010	5/7/2010	2:00	0.010000
RAINFALL_2010	5/7/2010	2:15	0.020000
RAINFALL_2010	5/7/2010	2:30	0.030000
RAINFALL_2010	5/7/2010	2:45	0.020000
RAINFALL_2010	5/7/2010	3:00	0.020000
RAINFALL_2010	5/7/2010	3:15	0.010000
RAINFALL_2010	5/7/2010	3:30	0.020000
RAINFALL_2010	5/7/2010	3:45	0.010000
RAINFALL_2010	5/7/2010	4:00	0.000000
RAINFALL_2010	5/7/2010	4:45	0.000000
RAINFALL_2010	5/7/2010	5:00	0.010000
RAINFALL_2010	5/7/2010	5:15	0.000000
RAINFALL_2010	5/7/2010	6:30	0.000000
RAINFALL_2010	5/7/2010	6:45	0.010000
RAINFALL_2010	5/7/2010	7:00	0.000000
RAINFALL_2010	5/10/2010	7:00	0.000000
RAINFALL_2010	5/10/2010	7:15	0.010000
RAINFALL_2010	5/10/2010	7:30	0.010000
RAINFALL_2010	5/10/2010	7:45	0.010000
RAINFALL_2010	5/10/2010	8:00	0.010000
RAINFALL_2010	5/10/2010	8:15	0.030000
RAINFALL_2010	5/10/2010	8:30	0.060000
RAINFALL_2010	5/10/2010	8:45	0.120000
RAINFALL_2010	5/10/2010	9:00	0.100000
RAINFALL_2010	5/10/2010	9:15	0.080000
RAINFALL_2010	5/10/2010	9:30	0.100000
RAINFALL_2010	5/10/2010	9:45	0.070000
RAINFALL_2010	5/10/2010	10:00	0.030000
RAINFALL_2010	5/10/2010	10:15	0.000000
RAINFALL_2010	5/10/2010	11:00	0.000000
RAINFALL_2010	5/10/2010	11:15	0.020000
RAINFALL_2010	5/10/2010	11:30	0.000000
RAINFALL_2010	5/10/2010	16:00	0.000000
RAINFALL_2010	5/10/2010	16:15	0.020000
RAINFALL_2010	5/10/2010	16:30	0.000000
RAINFALL_2010	5/10/2010	22:15	0.000000
RAINFALL_2010	5/10/2010	22:30	0.010000
RAINFALL_2010	5/10/2010	22:45	0.000000
RAINFALL_2010	5/12/2010	4:30	0.000000
RAINFALL_2010	5/12/2010	4:45	0.010000
RAINFALL_2010	5/12/2010	5:00	0.000000
RAINFALL_2010	5/12/2010	5:15	0.000000
RAINFALL_2010	5/12/2010	5:30	0.020000
RAINFALL_2010	5/12/2010	5:45	0.020000
RAINFALL_2010	5/12/2010	6:00	0.000000
RAINFALL_2010	5/12/2010	7:00	0.000000
RAINFALL_2010	5/12/2010	7:15	0.010000
RAINFALL_2010	5/12/2010	7:30	0.000000
RAINFALL_2010	5/12/2010	7:45	0.050000
RAINFALL_2010	5/12/2010	8:00	0.020000
RAINFALL_2010	5/12/2010	8:15	0.000000
RAINFALL_2010	5/12/2010	8:30	0.060000
RAINFALL_2010	5/12/2010	8:45	0.030000
RAINFALL_2010	5/12/2010	9:00	0.000000
RAINFALL_2010	5/12/2010	20:30	0.000000
RAINFALL_2010	5/12/2010	20:45	0.010000
RAINFALL_2010	5/12/2010	21:00	0.140000
RAINFALL_2010	5/12/2010	21:15	0.210000
RAINFALL_2010	5/12/2010	21:30	0.030000
RAINFALL_2010	5/12/2010	21:45	0.020000
RAINFALL_2010	5/12/2010	22:00	0.010000
RAINFALL_2010	5/12/2010	22:15	0.110000
RAINFALL_2010	5/12/2010	22:30	0.030000
RAINFALL_2010	5/12/2010	22:45	0.000000
RAINFALL_2010	5/20/2010	6:15	0.000000
RAINFALL_2010	5/20/2010	6:30	0.010000
RAINFALL_2010	5/20/2010	6:45	0.020000
RAINFALL_2010	5/20/2010	7:00	0.020000
RAINFALL_2010	5/20/2010	7:15	0.020000
RAINFALL_2010	5/20/2010	7:30	0.010000
RAINFALL_2010	5/20/2010	7:45	0.010000
RAINFALL_2010	5/20/2010	8:00	0.010000
RAINFALL_2010	5/20/2010	8:15	0.010000
RAINFALL_2010	5/20/2010	8:30	0.020000
RAINFALL_2010	5/20/2010	8:45	0.020000
RAINFALL_2010	5/20/2010	9:00	0.010000
RAINFALL_2010	5/20/2010	9:15	0.020000