[OPTIONS]
;Option and Files Scenario Set: BASE, Base Simulation Options
FLOW_UNITS	GPM
INFILTRATION	HORTON
FLOW_ROUTING	DYNWAVE
ALLOW_PONDING	YES
DRY_DAYS	5.000000
SKIP_STEADY_STATE 	NO
IGNORE_RAINFALL	NO
IGNORE_SNOWMELT	YES
IGNORE_GROUNDWATER	NO
IGNORE_QUALITY	NO
FORCE_MAIN_EQUATION	H-W
LINK_OFFSETS	DEPTH
MIN_SLOPE	0.000000
START_DATE	01/01/2002
START_TIME	00:00
END_DATE	01/02/2002
END_TIME	06:00
REPORT_START_DATE	01/01/2002
REPORT_START_TIME	00:00
SWEEP_START	01/01
SWEEP_END	12/31
WET_STEP	00:05:00
DRY_STEP	01:00:00
ROUTING_STEP	30
REPORT_STEP	00:05:00
INERTIAL_DAMPING	NONE
VARIABLE_STEP	0.750000
MINIMUM_STEP	0.5
LENGTHENING_STEP	0
MIN_SURFAREA	0.000000
NORMAL_FLOW_LIMITED	SLOPE
MAX_TRIALS	4
HEAD_TOLERANCE	0.005000

[FILES]

[RAINGAGES]
; Raingage
RAINGAGE-1	CUMULATIVE	0.500000	1.000000	TIMESERIES	TIMESERI-1		

[HYDROGRAPHS]

[TEMPERATURE]

[ADJUSTMENTS]

[SUBCATCHMENTS]
; New Subcatchment
SUB-100	RAINGAGE-1	J-147	4.842789	50.000000	475.000000	4.800000	0.000000
; New Subcatchment
SUB-102	RAINGAGE-1	J-149	2.502190	50.000000	600.000000	13.700000	0.000000
; New Subcatchment
SUB-104	RAINGAGE-1	J-325	1.193616	50.000000	190.000000	3.600000	0.000000
; New Subcatchment
SUB-106	RAINGAGE-1	J-327	0.854182	50.000000	133.000000	1.100000	0.000000
; New Subcatchment
SUB-108	RAINGAGE-1	J-153	0.757663	50.000000	90.000000	1.200000	0.000000
; New Subcatchment
SUB-110	RAINGAGE-1	J-214	0.512628	50.000000	120.000000	1.200000	0.000000
; New Subcatchment
SUB-112	RAINGAGE-1	J-215	1.663435	50.000000	250.000000	1.800000	0.000000
; New Subcatchment
SUB-114	RAINGAGE-1	J-219	0.882362	50.000000	110.000000	1.300000	0.000000
; New Subcatchment
SUB-116	RAINGAGE-1	J-222	0.837918	50.000000	110.000000	1.300000	0.000000
; New Subcatchment
SUB-118	RAINGAGE-1	J-227	0.459013	50.000000	50.000000	1.400000	0.000000
; New Subcatchment
SUB-12	RAINGAGE-1	J-184	1.652272	50.000000	100.000000	1.500000	0.000000
; New Subcatchment
SUB-120	RAINGAGE-1	J-470	0.210068	50.000000	50.000000	1.200000	0.000000
; New Subcatchment
SUB-122	RAINGAGE-1	J-233	0.355752	50.000000	50.000000	0.900000	0.000000
; New Subcatchment
SUB-124	RAINGAGE-1	J-136	0.363600	50.000000	50.000000	1.100000	0.000000
; New Subcatchment
SUB-126	RAINGAGE-1	J-139	0.342500	50.000000	50.000000	1.100000	0.000000
; New Subcatchment
SUB-128	RAINGAGE-1	J-142	0.624953	50.000000	80.000000	1.300000	0.000000
; New Subcatchment
SUB-130	RAINGAGE-1	J-145	0.448264	50.000000	50.000000	4.600000	0.000000
; New Subcatchment
SUB-132	RAINGAGE-1	J-148	0.386578	50.000000	90.000000	5.000000	0.000000
; New Subcatchment
SUB-134	RAINGAGE-1	J-209	4.253814	50.000000	200.000000	1.400000	0.000000
; New Subcatchment
SUB-136	RAINGAGE-1	J-328	1.262336	50.000000	130.000000	1.000000	0.000000
; New Subcatchment
SUB-138	RAINGAGE-1	J-329	1.262547	50.000000	130.000000	1.000000	0.000000
; New Subcatchment
SUB-14	RAINGAGE-1	J-181	0.705174	50.000000	110.000000	1.700000	0.000000
; New Subcatchment
SUB-140	RAINGAGE-1	J-330	6.794743	50.000000	400.000000	1.200000	0.000000
; New Subcatchment
SUB-142	RAINGAGE-1	J-458	2.955137	50.000000	230.000000	2.800000	0.000000
; New Subcatchment
SUB-144	RAINGAGE-1	J-395	3.287712	50.000000	290.000000	0.900000	0.000000
; New Subcatchment
SUB-146	RAINGAGE-1	J-397	3.600372	50.000000	290.000000	1.200000	0.000000
; New Subcatchment
SUB-148	RAINGAGE-1	J-401	1.969238	50.000000	180.000000	1.300000	0.000000
; New Subcatchment
SUB-150	RAINGAGE-1	J-399	2.056036	50.000000	180.000000	2.200000	0.000000
; New Subcatchment
SUB-152	RAINGAGE-1	J-402	3.496943	50.000000	165.000000	1.500000	0.000000
; New Subcatchment
SUB-154	RAINGAGE-1	J-403	1.749055	50.000000	165.000000	1.100000	0.000000
; New Subcatchment
SUB-156	RAINGAGE-1	J-405	2.244492	50.000000	210.000000	0.600000	0.000000
; New Subcatchment
SUB-158	RAINGAGE-1	J-404	2.156372	50.000000	100.000000	2.100000	0.000000
; New Subcatchment
SUB-16	RAINGAGE-1	J-177	0.666096	50.000000	110.000000	0.800000	0.000000
; New Subcatchment
SUB-160	RAINGAGE-1	J-407	1.392568	50.000000	190.000000	0.500000	0.000000
; New Subcatchment
SUB-162	RAINGAGE-1	J-406	3.640483	50.000000	160.000000	2.000000	0.000000
; New Subcatchment
SUB-164	RAINGAGE-1	J-409	4.891865	50.000000	300.000000	0.800000	0.000000
; New Subcatchment
SUB-166	RAINGAGE-1	J-412	7.403537	50.000000	900.000000	2.900000	0.000000
; New Subcatchment
SUB-168	RAINGAGE-1	J-418	4.439788	50.000000	380.000000	10.200000	0.000000
; New Subcatchment
SUB-170	RAINGAGE-1	J-416	7.554080	50.000000	340.000000	4.600000	0.000000
; New Subcatchment
SUB-172	RAINGAGE-1	J-432	4.205657	50.000000	280.000000	2.200000	0.000000
; New Subcatchment
SUB-174	RAINGAGE-1	J-436	4.066591	50.000000	500.000000	1.800000	0.000000
; New Subcatchment
SUB-176	RAINGAGE-1	J-442	5.801504	50.000000	395.000000	8.500000	0.000000
; New Subcatchment
SUB-178	RAINGAGE-1	J-420	3.778363	50.000000	200.000000	0.700000	0.000000
; New Subcatchment
SUB-18	RAINGAGE-1	J-177	0.874011	50.000000	100.000000	0.800000	0.000000
; New Subcatchment
SUB-180	RAINGAGE-1	J-424	2.983474	50.000000	200.000000	1.500000	0.000000
; New Subcatchment
SUB-182	RAINGAGE-1	J-426	3.799235	50.000000	225.000000	1.000000	0.000000
; New Subcatchment
SUB-184	RAINGAGE-1	J-425	1.798795	50.000000	225.000000	1.000000	0.000000
; New Subcatchment
SUB-186	RAINGAGE-1	J-438	6.015035	50.000000	435.000000	9.300000	0.000000
; New Subcatchment
SUB-188	RAINGAGE-1	J-444	5.489758	50.000000	425.000000	6.500000	0.000000
; New Subcatchment
SUB-190	RAINGAGE-1	J-173	0.878328	50.000000	90.000000	1.500000	0.000000
; New Subcatchment
SUB-20	RAINGAGE-1	J-172	0.803008	50.000000	90.000000	1.500000	0.000000
; New Subcatchment
SUB-22	RAINGAGE-1	J-169	0.814069	50.000000	110.000000	2.100000	0.000000
; New Subcatchment
SUB-24	RAINGAGE-1	J-168	0.948781	50.000000	150.000000	2.100000	0.000000
; New Subcatchment
SUB-26	RAINGAGE-1	J-277	0.424610	50.000000	70.000000	0.400000	0.000000
; New Subcatchment
SUB-28	RAINGAGE-1	J-279	1.804573	50.000000	250.000000	1.300000	0.000000
; New Subcatchment
SUB-30	RAINGAGE-1	J-319	0.712955	50.000000	95.000000	5.000000	0.000000
; New Subcatchment
SUB-32	RAINGAGE-1	J-324	1.211504	50.000000	95.000000	0.700000	0.000000
; New Subcatchment
SUB-34	RAINGAGE-1	J-394	0.633336	50.000000	170.000000	6.500000	0.000000
; New Subcatchment
SUB-38	RAINGAGE-1	J-326	2.735532	50.000000	200.000000	1.700000	0.000000
; New Subcatchment
SUB-40	RAINGAGE-1	J-165	0.588867	50.000000	85.000000	1.500000	0.000000
; New Subcatchment
SUB-42	RAINGAGE-1	J-166	0.644787	50.000000	110.000000	1.500000	0.000000
; New Subcatchment
SUB-44	RAINGAGE-1	J-207	0.812900	50.000000	110.000000	1.200000	0.000000
; New Subcatchment
SUB-46	RAINGAGE-1	J-164	0.517930	50.000000	85.000000	1.200000	0.000000
; New Subcatchment
SUB-48	RAINGAGE-1	J-163	0.594003	50.000000	110.000000	1.100000	0.000000
; New Subcatchment
SUB-50	RAINGAGE-1	J-162	0.540340	50.000000	85.000000	1.100000	0.000000
; New Subcatchment
SUB-54	RAINGAGE-1	J-159	0.613758	50.000000	95.000000	1.200000	0.000000
; New Subcatchment
SUB-56	RAINGAGE-1	J-212	0.933825	50.000000	115.000000	1.200000	0.000000
; New Subcatchment
SUB-58	RAINGAGE-1	J-211	1.389767	50.000000	175.000000	1.800000	0.000000
; New Subcatchment
SUB-60	RAINGAGE-1	SUB-60	0.866390	50.000000	110.000000	1.200000	0.000000
; New Subcatchment
SUB-62	RAINGAGE-1	J-218	1.226599	50.000000	150.000000	1.200000	0.000000
; New Subcatchment
SUB-64	RAINGAGE-1	J-156	2.046424	50.000000	250.000000	1.600000	0.000000
; New Subcatchment
SUB-66	RAINGAGE-1	J-220	0.852030	50.000000	110.000000	1.300000	0.000000
; New Subcatchment
SUB-68	RAINGAGE-1	J-221	1.064840	50.000000	135.000000	3.000000	0.000000
; New Subcatchment
SUB-70	RAINGAGE-1	J-225	0.801410	50.000000	110.000000	1.300000	0.000000
; New Subcatchment
SUB-72	RAINGAGE-1	J-310	1.549866	50.000000	180.000000	1.500000	0.000000
; New Subcatchment
SUB-74	RAINGAGE-1	J-229	0.924263	50.000000	100.000000	1.400000	0.000000
; New Subcatchment
SUB-76	RAINGAGE-1	J-311	1.043028	50.000000	130.000000	1.300000	0.000000
; New Subcatchment
SUB-78	RAINGAGE-1	J-282	2.587349	50.000000	260.000000	2.200000	0.000000
; New Subcatchment
SUB-80	RAINGAGE-1	J-285	2.444359	50.000000	180.000000	1.700000	0.000000
; New Subcatchment
SUB-82	RAINGAGE-1	J-287	1.064094	50.000000	90.000000	2.300000	0.000000
; New Subcatchment
SUB-84	RAINGAGE-1	J-291	0.616362	50.000000	75.000000	2.500000	0.000000
; New Subcatchment
SUB-86	RAINGAGE-1	J-151	0.798283	50.000000	140.000000	1.200000	0.000000
; New Subcatchment
SUB-88	RAINGAGE-1	J-235	1.096447	50.000000	140.000000	0.900000	0.000000
; New Subcatchment
SUB-90	RAINGAGE-1	J-137	1.122722	50.000000	140.000000	1.100000	0.000000
; New Subcatchment
SUB-92	RAINGAGE-1	J-312	0.734955	50.000000	95.000000	0.900000	0.000000
; New Subcatchment
SUB-94	RAINGAGE-1	J-140	0.952161	50.000000	140.000000	1.100000	0.000000
; New Subcatchment
SUB-96	RAINGAGE-1	J-143	1.233723	50.000000	140.000000	1.300000	0.000000
; New Subcatchment
SUB-98	RAINGAGE-1	J-146	0.223501	50.000000	70.000000	3.600000	0.000000

[SUBAREAS]
SUB-100	0.011000	0.150000	0.075000	0.150000	100.000000	OUTLET
SUB-102	0.011000	0.150000	0.075000	0.150000	100.000000	OUTLET
SUB-104	0.011000	0.150000	0.075000	0.150000	100.000000	OUTLET
SUB-106	0.011000	0.150000	0.075000	0.150000	100.000000	OUTLET
SUB-108	0.011000	0.150000	0.075000	0.150000	100.000000	OUTLET
SUB-110	0.011000	0.150000	0.075000	0.150000	100.000000	OUTLET
SUB-112	0.011000	0.150000	0.075000	0.150000	100.000000	OUTLET
SUB-114	0.011000	0.150000	0.075000	0.150000	100.000000	OUTLET
SUB-116	0.011000	0.150000	0.075000	0.150000	100.000000	OUTLET
SUB-118	0.011000	0.150000	0.075000	0.150000	100.000000	OUTLET
SUB-12	0.011000	0.150000	0.075000	0.150000	100.000000	OUTLET
SUB-120	0.011000	0.150000	0.075000	0.150000	100.000000	OUTLET
SUB-122	0.011000	0.150000	0.075000	0.150000	100.000000	OUTLET
SUB-124	0.011000	0.150000	0.075000	0.150000	100.000000	OUTLET
SUB-126	0.011000	0.150000	0.075000	0.150000	100.000000	OUTLET
SUB-128	0.011000	0.150000	0.075000	0.150000	100.000000	OUTLET
SUB-130	0.011000	0.150000	0.075000	0.150000	100.000000	OUTLET
SUB-132	0.011000	0.150000	0.075000	0.150000	100.000000	OUTLET
SUB-134	0.011000	0.150000	0.075000	0.150000	100.000000	OUTLET
SUB-136	0.011000	0.150000	0.075000	0.150000	100.000000	OUTLET
SUB-138	0.011000	0.150000	0.075000	0.150000	100.000000	OUTLET
SUB-14	0.011000	0.150000	0.075000	0.150000	100.000000	OUTLET
SUB-140	0.011000	0.150000	0.075000	0.150000	100.000000	OUTLET
SUB-142	0.011000	0.150000	0.075000	0.150000	100.000000	OUTLET
SUB-144	0.011000	0.150000	0.075000	0.150000	100.000000	OUTLET
SUB-146	0.011000	0.150000	0.075000	0.150000	100.000000	OUTLET
SUB-148	0.011000	0.150000	0.075000	0.150000	100.000000	OUTLET
SUB-150	0.011000	0.150000	0.075000	0.150000	100.000000	OUTLET
SUB-152	0.011000	0.150000	0.075000	0.150000	100.000000	OUTLET
SUB-154	0.011000	0.150000	0.075000	0.150000	100.000000	OUTLET
SUB-156	0.011000	0.150000	0.075000	0.150000	100.000000	OUTLET
SUB-158	0.011000	0.150000	0.075000	0.150000	100.000000	OUTLET
SUB-16	0.011000	0.150000	0.075000	0.150000	100.000000	OUTLET
SUB-160	0.011000	0.150000	0.075000	0.150000	100.000000	OUTLET
SUB-162	0.011000	0.150000	0.075000	0.150000	100.000000	OUTLET
SUB-164	0.011000	0.150000	0.075000	0.150000	100.000000	OUTLET
SUB-166	0.011000	0.150000	0.075000	0.150000	100.000000	OUTLET
SUB-168	0.011000	0.150000	0.075000	0.150000	100.000000	OUTLET
SUB-170	0.011000	0.150000	0.075000	0.150000	100.000000	OUTLET
SUB-172	0.011000	0.150000	0.075000	0.150000	100.000000	OUTLET
SUB-174	0.011000	0.150000	0.075000	0.150000	100.000000	OUTLET
SUB-176	0.011000	0.150000	0.075000	0.150000	100.000000	OUTLET
SUB-178	0.011000	0.150000	0.075000	0.150000	100.000000	OUTLET
SUB-18	0.011000	0.150000	0.075000	0.150000	100.000000	OUTLET
SUB-180	0.011000	0.150000	0.075000	0.150000	100.000000	OUTLET
SUB-182	0.011000	0.150000	0.075000	0.150000	100.000000	OUTLET
SUB-184	0.011000	0.150000	0.075000	0.150000	100.000000	OUTLET
SUB-186	0.011000	0.150000	0.075000	0.150000	100.000000	OUTLET
SUB-188	0.011000	0.150000	0.075000	0.150000	100.000000	OUTLET
SUB-190	0.011000	0.150000	0.075000	0.150000	100.000000	OUTLET
SUB-20	0.011000	0.150000	0.075000	0.150000	100.000000	OUTLET
SUB-22	0.011000	0.150000	0.075000	0.150000	100.000000	OUTLET
SUB-24	0.011000	0.150000	0.075000	0.150000	100.000000	OUTLET
SUB-26	0.011000	0.150000	0.075000	0.150000	100.000000	OUTLET
SUB-28	0.011000	0.150000	0.075000	0.150000	100.000000	OUTLET
SUB-30	0.011000	0.150000	0.075000	0.150000	100.000000	OUTLET
SUB-32	0.011000	0.150000	0.075000	0.150000	100.000000	OUTLET
SUB-34	0.011000	0.150000	0.075000	0.150000	100.000000	OUTLET
SUB-38	0.011000	0.150000	0.075000	0.150000	100.000000	OUTLET
SUB-40	0.011000	0.150000	0.075000	0.150000	100.000000	OUTLET
SUB-42	0.011000	0.150000	0.075000	0.150000	100.000000	OUTLET
SUB-44	0.011000	0.150000	0.075000	0.150000	100.000000	OUTLET
SUB-46	0.011000	0.150000	0.075000	0.150000	100.000000	OUTLET
SUB-48	0.011000	0.150000	0.075000	0.150000	100.000000	OUTLET
SUB-50	0.011000	0.150000	0.075000	0.150000	100.000000	OUTLET
SUB-54	0.011000	0.150000	0.075000	0.150000	100.000000	OUTLET
SUB-56	0.011000	0.150000	0.075000	0.150000	100.000000	OUTLET
SUB-58	0.011000	0.150000	0.075000	0.150000	100.000000	OUTLET
SUB-60	0.011000	0.150000	0.075000	0.150000	100.000000	OUTLET
SUB-62	0.011000	0.150000	0.075000	0.150000	100.000000	OUTLET
SUB-64	0.011000	0.150000	0.075000	0.150000	100.000000	OUTLET
SUB-66	0.011000	0.150000	0.075000	0.150000	100.000000	OUTLET
SUB-68	0.011000	0.150000	0.075000	0.150000	100.000000	OUTLET
SUB-70	0.011000	0.150000	0.075000	0.150000	100.000000	OUTLET
SUB-72	0.011000	0.150000	0.075000	0.150000	100.000000	OUTLET
SUB-74	0.011000	0.150000	0.075000	0.150000	100.000000	OUTLET
SUB-76	0.011000	0.150000	0.075000	0.150000	100.000000	OUTLET
SUB-78	0.011000	0.150000	0.075000	0.150000	100.000000	OUTLET
SUB-80	0.011000	0.150000	0.075000	0.150000	100.000000	OUTLET
SUB-82	0.011000	0.150000	0.075000	0.150000	100.000000	OUTLET
SUB-84	0.011000	0.150000	0.075000	0.150000	100.000000	OUTLET
SUB-86	0.011000	0.150000	0.075000	0.150000	100.000000	OUTLET
SUB-88	0.011000	0.150000	0.075000	0.150000	100.000000	OUTLET
SUB-90	0.011000	0.150000	0.075000	0.150000	100.000000	OUTLET
SUB-92	0.011000	0.150000	0.075000	0.150000	100.000000	OUTLET
SUB-94	0.011000	0.150000	0.075000	0.150000	100.000000	OUTLET
SUB-96	0.011000	0.150000	0.075000	0.150000	100.000000	OUTLET
SUB-98	0.011000	0.150000	0.075000	0.150000	100.000000	OUTLET

[INFILTRATION]

[AQUIFERS]

[GROUNDWATER]

[GWF]

[SNOWPACKS]

[JUNCTIONS]
; Existing CB
J-135	223.360000	3.900000	0.000000	0.000000	0.000000
; Existing ST MH
J-136	220.400000	9.950000	0.000000	0.000000	0.000000
; Existing CB
J-137	224.410000	5.050000	0.000000	0.000000	0.000000
; Existing CB
J-138	226.620000	3.800000	0.000000	0.000000	0.000000
; Existing ST MH
J-139	224.150000	10.010000	0.000000	0.000000	0.000000
; Existing CB
J-140	227.960000	5.650000	0.000000	0.000000	0.000000
; Existing CB
J-141	230.030000	4.010000	0.000000	0.000000	0.000000
; Existing ST MH
J-142	227.810000	9.800000	0.000000	0.000000	0.000000
; Ex Junction
J-143	231.700000	5.470000	0.000000	0.000000	0.000000
; Ex Junction
J-144	234.270000	3.630000	0.000000	0.000000	0.000000
; Existing ST MH
J-145	231.360000	10.540000	0.000000	0.000000	0.000000
; Existing CB
J-146	235.730000	6.510000	0.000000	0.000000	0.000000
; Existing CB
J-147	238.630000	5.390000	0.000000	0.000000	0.000000
; Existing ST MH
J-148	244.060000	13.930000	0.000000	0.000000	0.000000
; Existing CB
J-149	263.070000	4.530000	0.000000	0.000000	0.000000
; Existing CB
J-150	221.650000	3.540000	0.000000	0.000000	0.000000
; Existing CB
J-151	219.220000	5.300000	0.000000	0.000000	0.000000
; Existing CB
J-152	201.240000	6.920000	0.000000	0.000000	0.000000
; Existing ST MH
J-153	193.550000	8.850000	0.000000	0.000000	0.000000
; Existing CB
J-154	200.920000	1.280000	0.000000	0.000000	0.000000
; Existing CB
J-155	203.600000	2.400000	0.000000	0.000000	0.000000
; Existing CB
J-156	203.500000	2.300000	0.000000	0.000000	0.000000
; Existing CB
J-157	203.500000	3.100000	0.000000	0.000000	0.000000
; Existing CB
J-158	195.350000	3.700000	0.000000	0.000000	0.000000
; Existing CB
J-159	195.290000	4.450000	0.000000	0.000000	0.000000
; Existing CB
J-160	196.840000	2.930000	0.000000	0.000000	0.000000
; Existing CB
J-161	197.880000	1.800000	0.000000	0.000000	0.000000
; Existing CB
J-162	191.680000	4.390000	0.000000	0.000000	0.000000
; Existing CB
J-163	189.890000	6.250000	0.000000	0.000000	0.000000
; Existing CB
J-164	187.770000	4.980000	0.000000	0.000000	0.000000
; Existing CB
J-165	184.150000	3.900000	0.000000	0.000000	0.000000
; Existing CB
J-166	183.060000	5.400000	0.000000	0.000000	0.000000
; Ex Junction
J-167	177.960000	4.450000	0.000000	0.000000	0.000000
; Ex Junction
J-168	176.150000	6.510000	0.000000	0.000000	0.000000
; Existing CB
J-169	170.220000	5.150000	0.000000	0.000000	0.000000
; Existing CB
J-170	171.050000	4.690000	0.000000	0.000000	0.000000
; Existing CB
J-171	166.440000	3.600000	0.000000	0.000000	0.000000
; Existing CB
J-172	165.840000	4.450000	0.000000	0.000000	0.000000
; Existing CB
J-173	159.980000	4.000000	0.000000	0.000000	0.000000
; Existing CB
J-174	159.080000	4.850000	0.000000	0.000000	0.000000
; Ex Junction
J-175	119.200000	8.000000	0.000000	0.000000	0.000000
; Ex Junction
J-176	147.770000	14.290000	0.000000	0.000000	0.000000
; Existing CB
J-177	156.110000	4.920000	0.000000	0.000000	0.000000
; Existing CB
J-178	156.930000	4.230000	0.000000	0.000000	0.000000
; Existing ST MH
J-179	154.410000	8.270000	0.000000	0.000000	0.000000
; Existing CB
J-180	157.880000	5.370000	0.000000	0.000000	0.000000
; Existing CB
J-181	160.220000	2.700000	0.000000	0.000000	0.000000
; Existing ST MH
J-182	152.000000	13.300000	0.000000	0.000000	0.000000
; Existing ST MH
J-183	163.370000	4.500000	0.000000	0.000000	0.000000
; Existing CB
J-184	163.620000	4.280000	0.000000	0.000000	0.000000
; Existing ST MH
J-185	150.800000	14.000000	0.000000	0.000000	0.000000
; Existing CB
J-186	140.800000	8.200000	0.000000	0.000000	0.000000
; Existing CB
J-188	160.900000	5.500000	0.000000	0.000000	0.000000
; Existing SA MH
J-190	156.550000	5.780000	0.000000	0.000000	0.000000
; Existing SA MH
J-192	157.490000	5.720000	0.000000	0.000000	0.000000
; Existing SA MH
J-193	158.060000	6.820000	0.000000	0.000000	0.000000
; Existing SA MH
J-194	160.840000	6.050000	0.000000	0.000000	0.000000
; Existing SA MH
J-195	166.180000	6.500000	0.000000	0.000000	0.000000
; Existing SA MH
J-196	173.240000	9.250000	0.000000	0.000000	0.000000
; Existing SA MH
J-197	174.180000	10.500000	0.000000	0.000000	0.000000
; Existing SA MH
J-198	181.900000	11.300000	0.000000	0.000000	0.000000
; Existing SA MH
J-199	182.400000	10.600000	0.000000	0.000000	0.000000
; Existing SA MH
J-200	156.980000	5.100000	0.000000	0.000000	0.000000
; Existing ST MH
J-201	156.440000	5.600000	0.000000	0.000000	0.000000
; Existing ST MH
J-202	158.160000	6.500000	0.000000	0.000000	0.000000
; Existing ST MH
J-203	162.680000	8.430000	0.000000	0.000000	0.000000
; Existing ST MH
J-204	166.160000	9.990000	0.000000	0.000000	0.000000
; Ex Junction
J-205	172.360000	10.790000	0.000000	0.000000	0.000000
; Existing ST MH
J-206	179.580000	9.280000	0.000000	0.000000	0.000000
; Existing CB
J-207	183.220000	9.550000	0.000000	0.000000	0.000000
; Existing ST MH
J-208	186.540000	10.200000	0.000000	0.000000	0.000000
; Existing ST MH
J-209	190.430000	9.610000	0.000000	0.000000	0.000000
; Existing CB
J-211	197.690000	2.150000	0.000000	0.000000	0.000000
; Existing CB
J-212	197.110000	13.400000	0.000000	0.000000	0.000000
; Existing CB
J-213	196.450000	5.150000	0.000000	0.000000	0.000000
; Existing ST MH
J-214	196.320000	10.010000	0.000000	0.000000	0.000000
; Existing ST MH
J-215	198.520000	10.190000	0.000000	0.000000	0.000000
; Existing CB
J-216	199.380000	6.460000	0.000000	0.000000	0.000000
; Existing CB
J-217	201.180000	4.550000	0.000000	0.000000	0.000000
; Existing CB
J-218	201.840000	3.510000	0.000000	0.000000	0.000000
; Ex Junction
J-219	201.330000	9.610000	0.000000	0.000000	0.000000
; Ex Junction
J-220	205.000000	5.100000	0.000000	0.000000	0.000000
; Existing CB
J-221	206.800000	3.700000	0.000000	0.000000	0.000000
; Existing ST MH
J-222	205.930000	9.480000	0.000000	0.000000	0.000000
; Existing ST MH
J-223	206.320000	9.210000	0.000000	0.000000	0.000000
; Existing CB
J-224	207.000000	7.930000	0.000000	0.000000	0.000000
; Existing CB
J-225	210.150000	4.350000	0.000000	0.000000	0.000000
; Existing CB
J-226	211.040000	4.400000	0.000000	0.000000	0.000000
; Ex Junction
J-227	211.130000	8.560000	0.000000	0.000000	0.000000
; Ex Junction
J-228	212.200000	8.700000	0.000000	0.000000	0.000000
; Ex Junction
J-229	214.790000	4.750000	0.000000	0.000000	0.000000
; Existing CB
J-230	216.820000	3.840000	0.000000	0.000000	0.000000
; Existing ST MH
J-231	212.590000	10.730000	0.000000	0.000000	0.000000
; Existing ST MH
J-232	214.530000	10.950000	0.000000	0.000000	0.000000
; Existing ST MH
J-233	216.280000	9.390000	0.000000	0.000000	0.000000
; Existing ST MH
J-234	216.800000	10.740000	0.000000	0.000000	0.000000
; Existing CB
J-235	221.230000	5.550000	0.000000	0.000000	0.000000
; Existing SA MH
J-236	182.010000	11.130000	0.000000	0.000000	0.000000
; Existing SA MH
J-237	192.800000	7.190000	0.000000	0.000000	0.000000
; Existing SA MH
J-238	188.710000	11.240000	0.000000	0.000000	0.000000
; Existing SA MH
J-239	189.370000	11.580000	0.000000	0.000000	0.000000
; Existing SA MH
J-240	191.960000	9.640000	0.000000	0.000000	0.000000
; Existing SA MH
J-241	193.400000	7.480000	0.000000	0.000000	0.000000
; Existing SA MH
J-242	195.400000	10.960000	0.000000	0.000000	0.000000
; Existing SA MH
J-243	197.500000	9.200000	0.000000	0.000000	0.000000
; Existing SA MH
J-244	199.580000	10.930000	0.000000	0.000000	0.000000
; Existing SA MH
J-245	204.120000	11.600000	0.000000	0.000000	0.000000
; Existing SA MH
J-246	204.700000	12.240000	0.000000	0.000000	0.000000
; Existing SA MH
J-247	208.110000	12.210000	0.000000	0.000000	0.000000
; Existing SA MH
J-248	211.100000	12.820000	0.000000	0.000000	0.000000
; Existing SA MH
J-249	212.970000	12.250000	0.000000	0.000000	0.000000
; Existing SA MH
J-250	214.900000	13.600000	0.000000	0.000000	0.000000
; Existing SA MH
J-251	215.500000	11.760000	0.000000	0.000000	0.000000
; Existing SA MH
J-252	218.620000	11.440000	0.000000	0.000000	0.000000
; Existing SA MH
J-253	219.350000	10.900000	0.000000	0.000000	0.000000
; Existing SA MH
J-254	222.990000	10.920000	0.000000	0.000000	0.000000
; Existing SA MH
J-255	224.970000	12.400000	0.000000	0.000000	0.000000
; Existing SA MH
J-256	225.550000	12.140000	0.000000	0.000000	0.000000
; Existing SA MH
J-257	227.770000	13.880000	0.000000	0.000000	0.000000
; Existing SA MH
J-258	227.880000	14.400000	0.000000	0.000000	0.000000
; Existing SA MH
J-259	237.000000	8.000000	0.000000	0.000000	0.000000
; Existing SA MH
J-260	241.000000	8.000000	0.000000	0.000000	0.000000
; Existing SA MH
J-261	182.160000	10.720000	0.000000	0.000000	0.000000
; Existing SA MH
J-262	163.900000	4.060000	0.000000	0.000000	0.000000
; Existing SA MH
J-263	164.000000	6.300000	0.000000	0.000000	0.000000
; Existing SA MH
J-264	171.300000	7.500000	0.000000	0.000000	0.000000
; Existing SA MH
J-265	177.700000	8.000000	0.000000	0.000000	0.000000
; Ex Junction
J-266	178.100000	8.100000	0.000000	0.000000	0.000000
; Existing SA MH
J-267	184.200000	6.900000	0.000000	0.000000	0.000000
; Existing SA MH
J-268	187.800000	7.500000	0.000000	0.000000	0.000000
; Existing SA MH
J-269	194.400000	7.800000	0.000000	0.000000	0.000000
; Existing SA MH
J-270	197.500000	7.500000	0.000000	0.000000	0.000000
; Existing SA MH
J-271	198.100000	7.400000	0.000000	0.000000	0.000000
; Existing SA MH
J-272	197.400000	7.600000	0.000000	0.000000	0.000000
; Existing SA MH
J-273	195.600000	6.400000	0.000000	0.000000	0.000000
; Existing SA MH
J-274	174.300000	8.200000	0.000000	0.000000	0.000000
; Existing SA MH
J-275	180.700000	8.000000	0.000000	0.000000	0.000000
; Existing ST MH
J-276	162.100000	6.100000	0.000000	0.000000	0.000000
; Existing CB
J-277	162.900000	6.000000	0.000000	0.000000	0.000000
; Existing ST MH
J-278	164.700000	6.700000	0.000000	0.000000	0.000000
; Existing CB
J-279	166.600000	3.400000	0.000000	0.000000	0.000000
; Existing ST MH
J-280	165.100000	6.600000	0.000000	0.000000	0.000000
; Existing ST MH
J-281	174.000000	5.300000	0.000000	0.000000	0.000000
; Existing CB
J-282	175.800000	3.400000	0.000000	0.000000	0.000000
; Existing CB
J-283	175.900000	3.000000	0.000000	0.000000	0.000000
; Existing ST MH
J-284	180.950000	4.900000	0.000000	0.000000	0.000000
; Existing CB
J-285	182.700000	3.500000	0.000000	0.000000	0.000000
; Existing CB
J-286	183.500000	3.100000	0.000000	0.000000	0.000000
; Existing ST MH
J-287	189.300000	6.000000	0.000000	0.000000	0.000000
; Existing CB
J-288	191.700000	3.600000	0.000000	0.000000	0.000000
; Existing ST MH
J-289	200.500000	4.800000	0.000000	0.000000	0.000000
; Existing CB
J-290	201.700000	3.300000	0.000000	0.000000	0.000000
; Existing CB
J-291	198.600000	2.200000	0.000000	0.000000	0.000000
; Existing SA MH
J-292	201.500000	4.500000	0.000000	0.000000	0.000000
; Existing SA MH
J-293	199.500000	6.700000	0.000000	0.000000	0.000000
; Existing SA MH
J-294	204.200000	5.300000	0.000000	0.000000	0.000000
; Existing SA MH
J-295	202.110000	7.980000	0.000000	0.000000	0.000000
; Existing SA MH
J-296	212.900000	3.000000	0.000000	0.000000	0.000000
; Ex Junction
J-297	209.800000	5.500000	0.000000	0.000000	0.000000
; Existing SA MH
J-298	208.000000	6.810000	0.000000	0.000000	0.000000
; Existing SA MH
J-299	212.780000	6.800000	0.000000	0.000000	0.000000
; Existing SA MH
J-300	214.810000	6.200000	0.000000	0.000000	0.000000
; Ex FM Valve
J-301	218.340000	5.000000	0.000000	0.000000	0.000000
; Existing SA MH
J-302	219.700000	5.200000	0.000000	0.000000	0.000000
; Existing SA MH
J-303	216.640000	8.760000	0.000000	0.000000	0.000000
; Existing SA MH
J-304	220.700000	5.320000	0.000000	0.000000	0.000000
; Existing SA MH
J-305	224.570000	4.800000	0.000000	0.000000	0.000000
; Existing SA MH
J-306	226.910000	5.350000	0.000000	0.000000	0.000000
; Existing SA MH
J-307	229.980000	9.300000	0.000000	0.000000	0.000000
; Existing SA MH
J-308	231.300000	7.000000	0.000000	0.000000	0.000000
; Existing SA MH
J-309	236.000000	8.000000	0.000000	0.000000	0.000000
; Existing ST MH
J-310	209.750000	5.120000	0.000000	0.000000	0.000000
; Existing ST MH
J-311	214.860000	4.700000	0.000000	0.000000	0.000000
; Existing ST MH
J-312	221.310000	4.020000	0.000000	0.000000	0.000000
; Existing ST MH
J-313	225.900000	5.200000	0.000000	0.000000	0.000000
; Existing ST MH
J-314	233.400000	6.000000	0.000000	0.000000	0.000000
; Existing CB
J-315	237.500000	2.200000	0.000000	0.000000	0.000000
; Ex Junction
J-316	229.600000	8.000000	0.000000	0.000000	0.000000
; Ex Junction
J-317	231.000000	8.000000	0.000000	0.000000	0.000000
; Ex Junction
J-318	232.900000	8.000000	0.000000	0.000000	0.000000
; Existing ST MH
J-319	168.400000	5.000000	0.000000	0.000000	0.000000
; Existing CB
J-320	169.600000	5.000000	0.000000	0.000000	0.000000
; Existing CB
J-321	178.500000	5.000000	0.000000	0.000000	0.000000
; Existing CB
J-322	184.400000	5.000000	0.000000	0.000000	0.000000
; Existing ST MH
J-323	177.200000	9.500000	0.000000	0.000000	0.000000
; Existing ST MH
J-324	182.400000	9.300000	0.000000	0.000000	0.000000
; Existing ST MH
J-325	187.600000	7.400000	0.000000	0.000000	0.000000
; Existing ST MH
J-326	190.800000	2.540000	0.000000	0.000000	0.000000
; Existing ST MH
J-327	196.800000	4.100000	0.000000	0.000000	0.000000
; Existing ST MH
J-328	199.900000	4.400000	0.000000	0.000000	0.000000
; Existing ST MH
J-329	203.030000	4.470000	0.000000	0.000000	0.000000
; Ex Junction
J-330	206.400000	6.120000	0.000000	0.000000	0.000000
; Existing SA MH
J-331	194.340000	7.870000	0.000000	0.000000	0.000000
; Existing SA MH
J-332	198.350000	9.930000	0.000000	0.000000	0.000000
; Existing SA MH
J-333	214.110000	10.000000	0.000000	0.000000	0.000000
; Existing SA MH
J-334	219.820000	10.040000	0.000000	0.000000	0.000000
; Existing SA MH
J-335	223.450000	10.310000	0.000000	0.000000	0.000000
; Existing SA MH
J-336	225.990000	11.190000	0.000000	0.000000	0.000000
; Existing SA MH
J-337	234.000000	8.000000	0.000000	0.000000	0.000000
; Existing SA MH
J-338	235.000000	8.000000	0.000000	0.000000	0.000000
; Existing SA MH
J-339	184.900000	5.100000	0.000000	0.000000	0.000000
; Existing SA MH
J-340	184.000000	7.800000	0.000000	0.000000	0.000000
; Existing SA MH
J-341	183.300000	11.700000	0.000000	0.000000	0.000000
; Existing SA MH
J-342	185.600000	8.400000	0.000000	0.000000	0.000000
; Existing SA MH
J-343	183.100000	10.350000	0.000000	0.000000	0.000000
; Existing SA MH
J-344	192.400000	8.200000	0.000000	0.000000	0.000000
; Existing SA MH
J-345	193.930000	9.770000	0.000000	0.000000	0.000000
; Existing SA MH
J-346	199.100000	6.500000	0.000000	0.000000	0.000000
; Existing SA MH
J-347	196.800000	9.200000	0.000000	0.000000	0.000000
; Existing SA MH
J-348	198.360000	9.390000	0.000000	0.000000	0.000000
; Existing SA MH
J-349	202.700000	9.860000	0.000000	0.000000	0.000000
; Existing SA MH
J-350	204.830000	5.800000	0.000000	0.000000	0.000000
; Existing SA MH
J-351	206.710000	9.300000	0.000000	0.000000	0.000000
; Existing SA MH
J-352	212.200000	7.200000	0.000000	0.000000	0.000000
; Existing SA MH
J-353	207.690000	9.270000	0.000000	0.000000	0.000000
; Existing SA MH
J-354	211.800000	9.700000	0.000000	0.000000	0.000000
; Existing SA MH
J-355	213.500000	9.600000	0.000000	0.000000	0.000000
; Existing SA MH
J-356	214.400000	13.500000	0.000000	0.000000	0.000000
; Existing SA MH
J-357	215.000000	11.500000	0.000000	0.000000	0.000000
; Existing SA MH
J-358	224.770000	7.700000	0.000000	0.000000	0.000000
; Existing SA MH
J-359	221.500000	9.200000	0.000000	0.000000	0.000000
; Existing SA MH
J-360	222.300000	7.500000	0.000000	0.000000	0.000000
; Existing SA MH
J-361	225.700000	9.400000	0.000000	0.000000	0.000000
; Existing SA MH
J-362	222.000000	13.900000	0.000000	0.000000	0.000000
; Existing SA MH
J-363	227.000000	5.500000	0.000000	0.000000	0.000000
; Existing SA MH