[TITLE]
Scenario Run :  BASE
 SW 1 0 20

[OPTIONS]
;Option and Files Scenario Set: BASE, Base Simulation Options
FLOW_UNITS	CFS
INFILTRATION	HORTON
FLOW_ROUTING	DYNWAVE
ALLOW_PONDING	NO
DRY_DAYS	0.000000
SKIP_STEADY_STATE 	NO
IGNORE_RAINFALL	NO
IGNORE_SNOWMELT	NO
IGNORE_GROUNDWATER	NO
IGNORE_QUALITY	NO
FORCE_MAIN_EQUATION	H-W
LINK_OFFSETS	DEPTH
MIN_SLOPE	0.000000
START_DATE	02/22/2002
START_TIME	00:00
END_DATE	02/24/2002
END_TIME	00:00
REPORT_START_DATE	02/22/2002
REPORT_START_TIME	00:00
SWEEP_START	01/01
SWEEP_END	12/31
WET_STEP	00:05:00
DRY_STEP	01:00:00
ROUTING_STEP	30
REPORT_STEP	00:01:40
INERTIAL_DAMPING	NONE
VARIABLE_STEP	0.750000
MINIMUM_STEP	0.5
LENGTHENING_STEP	0
MIN_SURFAREA	12.566000
NORMAL_FLOW_LIMITED	BOTH
MAX_TRIALS	4
HEAD_TOLERANCE	0.005000

[FILES]
SAVE RUNOFF	"C:\swmm_crada_files\OUTPUT.MST"

[RAINGAGES]

[HYDROGRAPHS]

[EVAPORATION]
CONSTANT	0.100000
DRY_ONLY	NO

[TEMPERATURE]

[ADJUSTMENTS]

[SUBCATCHMENTS]

[SUBAREAS]

[INFILTRATION]

[AQUIFERS]

[GROUNDWATER]

[GWF]

[SNOWPACKS]

[JUNCTIONS]
10309	101.600000	9.400000	0.000000	0.000000	0.000000
15009	111.500000	13.500000	0.000000	0.000000	0.000000
16009	102.000000	18.000000	0.000000	0.000000	0.000000
16109	102.800000	22.200000	0.000000	0.000000	0.000000
; *    JUNCTION DATA
80408	124.600000	13.400000	0.000000	0.000000	0.000000
80608	118.300000	16.700000	0.000000	0.000000	0.000000
81009	128.200000	8.800000	0.000000	0.000000	0.000000
81309	117.500000	12.500000	0.000000	0.000000	0.000000
82309	112.300000	42.700000	0.000000	0.000000	0.000000

[OUTFALLS]
10208	-100.000000	FIXED	0.000000	NO

[DIVIDERS]

[STORAGE]

[CONDUITS]
1030	10309	10208	4500.000000	0.016000	0.000000	0.000000	0.000000	0.000000
1570	15009	16009	5000.000000	0.015400	0.000000	0.000000	0.000000	0.000000
1600	16009	16109	500.000000	0.015000	0.000000	0.000000	0.000000	0.000000
1602	82309	16109	5000.000000	0.034000	0.000000	0.000000	0.000000	0.000000
1630	16009	10309	300.000000	0.015000	0.000000	0.000000	0.000000	0.000000
8040	80408	80608	1800.000000	0.015000	0.000000	0.000000	0.000000	0.000000
8060	80608	82309	2075.000000	0.015000	0.000000	2.200000	0.000000	0.000000
8100	81009	81309	5100.000000	0.015000	0.000000	0.000000	0.000000	0.000000
8130	81309	15009	3500.000000	0.015000	0.000000	0.000000	0.000000	0.000000

[PUMPS]

[ORIFICES]

[WEIRS]

[XSECTIONS]
1030	TRIANGULAR	9.000000	54.000000	0.000000	0.000000	1	0
1570	CIRCULAR	5.500000	0.000000	0.000000	0.000000	1	0
1600	CIRCULAR	6.000000	0.000000	0.000000	0.000000	1	0
1602	CIRCULAR	5.000000	0.000000	0.000000	0.000000	1	0
1630	TRIANGULAR	9.000000	54.000000	0.000000	0.000000	1	0
8040	CIRCULAR	4.000000	0.000000	0.000000	0.000000	1	0
8060	CIRCULAR	4.000000	0.000000	0.000000	0.000000	1	0
8100	CIRCULAR	4.500000	0.000000	0.000000	0.000000	1	0
8130	CIRCULAR	4.500000	0.000000	0.000000	0.000000	1	0

[TRANSECTS]

[LOSSES]
1030	0.000000	0.000000	0.000000	NO	0.000000
1570	0.000000	0.000000	0.000000	NO	0.000000
1600	0.000000	0.000000	0.000000	NO	0.000000
1602	0.000000	0.000000	0.000000	NO	0.000000
1630	0.000000	0.000000	0.000000	NO	0.000000
8040	0.000000	0.000000	0.000000	NO	0.000000
8060	0.000000	0.000000	0.000000	NO	0.000000
8100	0.000000	0.000000	0.000000	NO	0.000000
8130	0.000000	0.000000	0.000000	NO	0.000000

[CONTROLS]

[POLLUTANTS]

[LANDUSES]

[COVERAGES]

[BUILDUP]

[WASHOFF]

[TREATMENT]

[INFLOWS]

[DWF]
80408	FLOW	40.000000	"HOURLY"	""	""	""
81009	FLOW	50.000000	"HOURLY"	""	""	""
82309	FLOW	50.000000	"HOURLY"	""	""	""

[RDII]

[LOADINGS]

[CURVES]

[TIMESERIES]

[PATTERNS]
; 
HOURLY	HOURLY	0.500000	0.600000	0.700000	0.800000	0.900000
HOURLY	1.000000	1.100000	1.200000	1.300000	1.400000
HOURLY	1.500000	1.400000	1.300000	1.200000	1.100000
HOURLY	1.000000	0.900000	0.800000	0.700000	0.600000
HOURLY	0.500000	0.400000	0.500000	0.600000

[REPORT]
;Report Option Set: BASE, Base Simulation Report
INPUT YES
CONTINUITY YES
FLOWSTATS YES
CONTROLS NO
SUBCATCHMENTS  ALL
NODES  ALL
LINKS  ALL

[COORDINATES]
10208	-578.950000	4947.370000
10309	389.470000	2421.050000
15009	4978.950000	2421.050000
16009	2494.740000	2421.050000
16109	2494.740000	7536.840000
80408	10115.790000	7536.840000
80608	7463.160000	7536.840000
81009	9989.470000	2421.050000
81309	7568.420000	2421.050000
82309	4957.890000	7536.840000


[POLYGONS]

[VERTICES]


[SYMBOLS]

[MAP]
DIMENSIONS	-1113.687000	2165.260500	10650.527000	7792.629500

